<?xml version="1.0" encoding="UTF-8"?>

<!-- generated on 2025-03-31 21:58:21.862414 by randomTrips.py v1_22_0+0002-63e50f52594
<configuration>
    <net-file value="map.net.xml"/>
    <route-file value="routes.rou.xml"/>
    <end value="300.0"/>
    <period value="1.0"/>
</configuration>
-->

<!-- generated on 2025-03-31 21:58:21 by Eclipse SUMO duarouter Version 1.22.0
<duarouterConfiguration xmlns:xsi="http://www.w3.org/2001/XMLSchema-instance" xsi:noNamespaceSchemaLocation="http://sumo.dlr.de/xsd/duarouterConfiguration.xsd">

    <input>
        <net-file value="map.net.xml"/>
        <route-files value="trips.trips.xml"/>
    </input>

    <output>
        <output-file value="routes.rou.xml"/>
        <alternatives-output value="NUL"/>
    </output>

    <time>
        <begin value="0"/>
        <end value="300.0"/>
    </time>

    <report>
        <no-warnings value="true"/>
        <ignore-errors value="true"/>
        <no-step-log value="true"/>
    </report>

</duarouterConfiguration>
-->

<routes xmlns:xsi="http://www.w3.org/2001/XMLSchema-instance" xsi:noNamespaceSchemaLocation="http://sumo.dlr.de/xsd/routes_file.xsd">
    <vehicle id="0" depart="0.00">
        <route edges="13681373#0 13682447#1 13682447#2 13682447#3 -13681524#33 -13681524#32 -13681282#11 -13681282#10 -13681282#9 -13681282#8 -13681282#7 -13681282#6 -13681282#5 -13681282#4 -13681282#3 -13681282#2 -13681282#1 -13681282#0 13681576#19 13681576#20 13681576#21 13681576#22 13681576#23 13681576#24 13681576#25 13681576#26 13681576#27 13681576#28 13681576#29 13681576#30 13681576#31 13681576#32 13681576#33 13681576#34 13681576#35 13681576#36 13680617#0 13680617#1 13680617#2 13680617#3 13680617#4 13680617#5 13680617#6 13680617#7 13680617#8 13680617#9 13680617#10 13680617#11 13680617#12 13680617#13 13680617#14 13680617#15 13680617#16 886071145#3 886071145#4 13681433#0 13681433#1 13681433#2 1223123004 1223123005 -1223123003 13681402#0 13681402#1 13681402#2 13681402#3 13681402#4 13681402#5 13681402#6 13681402#7 13681402#8 13681402#9 13681402#10 13681402#11 1291318427#0 -1291318427#3"/>
    </vehicle>
    <vehicle id="1" depart="1.00">
        <route edges="-13682507#2 -13682507#1 13682507#1 13682507#2 13682507#3 13682507#4 895007899#0 895007899#1 895007899#2 895007899#3 895007899#4 895007899#5 895007899#6 895007899#7 895007899#8 895007899#9 895007899#10 895007899#11 895007899#12 895007899#13 895007899#14 895007899#15 895007899#16 895007899#17 895007899#18 895007899#19 895007899#20 895007899#21 895007899#22 895007899#23 895007899#24 895007899#25 895007899#26 895007899#27 895007899#28 895007899#29 895007899#30 895007899#31 895007899#32 895007899#33 895007899#34 895007899#35 895007899#36 895007899#37 895007899#38 895007899#39 895007899#40 895007899#41 895007899#42 886071146#0 886071146#1 886071146#2 13680806#0 13680806#1 13680806#2 13680806#3 13680806#4 13680806#5 13680806#6 13680806#7 13680806#8 13680806#9 13680806#10 13680806#11 13680806#12 13680806#13 13680806#14 13680806#15 -886071145#4 -886071145#3 -886071145#2 -886071145#1 -886071145#0 13681639#0 13681639#1 13681639#2 13681639#3 13681639#4 13681639#5 13681639#6 13681639#7 13681639#8 13682237#0 13682237#1 13682237#2 13682237#3 13682237#4 13682237#5 13682237#6 13682237#7 13682237#8 13682237#9 13682237#10 13682237#11 13682237#12 13682237#13 13682237#14 13682237#15 13682237#16 13682237#17 13682237#18 13682237#19 13682237#20 13682237#21 13682237#22 13682237#23 -13682340#9 -13682340#8 -13682340#7 -13682340#6 -13682340#5 -13682340#4 -13682340#3 -13682183#3 -13682183#2 -13682183#1 -13682183#0"/>
    </vehicle>
    <vehicle id="2" depart="2.00">
        <route edges="13682432#4 191800373#5 191800379#0 191800373#4 -13682432#4 -13682432#3 -13682432#2 -13682432#1 -13682432#0 13681524#8 13681524#9 13681524#10 13681524#11 13681524#12 13681524#13 13681524#14 13681524#15 13681524#16 13681524#17 13681524#18 13681524#19 13681524#20 13681524#21 13681524#22 13681524#23 13681524#24 13681524#25 13681524#26 13681524#27 13681524#28 13681524#29 13681524#30 13681524#31 13681524#32 13681524#33 13681524#34 13681524#35 13681524#36 13681524#37 13681524#38 13681524#39 13681524#40 13681524#41 13681524#42 13681524#43 13681524#44 13681524#45 13681524#46 13681524#47 13681524#48 13681524#49 13681524#50 13681524#51 13681524#52 13681524#53 13681524#54 13681524#55 13681524#56 13681524#57 13681524#58 13681524#59 13681524#60 13681524#61 13681524#62 13681524#63 13681524#64 13681524#65 13681524#66 1159061926#0 13683131#14 895034484 13682429#1 13682429#2 13682429#3 13682429#4 13682429#5 13682429#6 13682429#7 13682429#8 13682429#9 13682429#10 13682429#11 13682429#12 13682429#13 13682429#14 13682429#15 13682429#16 13682429#17 13682429#18 13682429#19 497742021#0 497742021#1 497742021#2 497742021#3 497742021#4 497742021#5 497742021#6 497742021#7 497742021#8 497742021#9 497742021#10 497742021#11 497742021#12 497742021#13 1223122984#0 1223122984#1 1223122984#2 1223122984#3 1223122984#4 1223122984#5 1223122984#6 1223122982#0 1223122982#1 1223122983#0 1223122983#1 13681803#0 13681803#1 13681803#2 13681803#3 13681803#4 13681803#5 13681803#6"/>
    </vehicle>
    <vehicle id="3" depart="3.00">
        <route edges="37138317#5 37138317#6 -13682173#5 -13682173#4 -13682173#3 -13682173#2 -13682173#1 -13682173#0 13680375 13680347#0 13680347#1 13680347#2 13680347#3 13680347#4 13680347#5 13680347#6 13680347#7 -202055014#2 -202055014#1 -202055014#0 13680244#0 13680244#1 202055012#0 202055012#1 202055012#2 202055012#3 202055012#4 202055012#5 202055012#6 202055012#7 202055012#8 202055012#9 202055012#10 13680903#0 13680903#1 13680903#2 13680903#3 13680903#4 13680903#5 13680903#6 13680903#7 13680903#8 13680903#9 13680903#10 -13682482#4 -13682482#3 -13682482#2 -13682482#1 -13682482#0 202055019#0 202055019#1 202055019#2 202055019#3 378520703#0 378520703#1 378520702#0 292134213#1 292134213#2 895034493 13683131#0 13683131#1 13683131#2 13683131#3 13683131#4 13683131#5 13683131#6 13683131#7 13683131#8 13683131#9 13683131#10 13683131#11 13683131#12 13683131#13 13683131#14 895034484 895011684#0 895011684#1 895011684#2 895011684#3 895011684#4 895011684#5 895011684#6 895011684#7 895011684#8 895011684#9 895011684#10 895011684#11 895011684#12 895011684#13 895011684#14 895011684#15 895011684#16 895011684#17 895011684#18 895011684#19 895011684#20 129441444#0 129441444#1 129441444#2 129441444#3 129441444#4 129441444#5 129441444#6 129441444#7 129441444#8 129441444#9 129441444#10 129441444#11 129441444#12 129441444#13 129441444#14 129441444#15 129441444#16 129441444#17 129441444#18 129441444#19 129441444#20 129441444#21 129441444#22 129441444#23 129441444#24 -13680550#0"/>
    </vehicle>
    <vehicle id="4" depart="4.00">
        <route edges="-613382845#3 613382845#3 1223623586 1223623582#0 1223623582#1 1223623581 1223623596#0 1223623596#1 1223623596#2 1223623585 1223623595#0 1223623595#1 1223623595#2 1223623592 1223623591#0 1223623591#1 895007899#0 895007899#1 895007899#2 895007899#3 895007899#4 895007899#5 895007899#6 895007899#7 895007899#8 895007899#9 895007899#10 895007899#11 895007899#12 895007899#13 895007899#14 895007899#15 895007899#16 895007899#17 895007899#18 895007899#19 895007899#20 895007899#21 895007899#22 895007899#23 895007899#24 895007899#25 895007899#26 895007899#27 895007899#28 895007899#29 895007899#30 895007899#31 895007899#32 895007899#33 895007899#34 895007899#35 895007899#36 895007899#37 895007899#38 895007899#39 895007899#40 895007899#41 895007899#42 886071146#0 886071146#1 886071146#2 13680806#0 13680806#1 13680806#2 13680806#3 13680806#4 13680806#5 13680806#6 13680806#7 -13681476#5 -13681476#4 -13681476#3 -13681476#2 -13681476#1 -13681476#0 -13682474#4 -13682474#3 -13682474#2 -13682474#1 -13682474#0 -13680663#27 -13680663#26 -13680663#25 -13680663#24 -13680663#23 -13680663#22 -13680663#21 -13680663#20 -13680663#19 -13680663#18 -13680663#17 -13680663#16 -13680663#15 -13680663#14 -13680663#13 -13680663#12 -13680663#11 -13681299#9 -13681299#8 -13681299#7 -13681299#6 -13681299#5 -13681299#4 -13681299#3 -13681299#2 -13681299#1 -13681299#0 -1298127652 -1298127590#2 -1298127590#1 -1298127590#0 -1298127589#1 -1298127589#0 13681361 13680809#0 13680809#1 13680809#2 13680809#3 13680809#4 13680809#5 13680809#6 1297818602#0 1297818602#1 1297818602#2 1297818602#3 1297818602#4 -1297818602#4 -1297818602#3"/>
    </vehicle>
    <vehicle id="5" depart="5.00">
        <route edges="-13681964#9 -13681821#4 -13681821#3 -13681821#2 -13681821#1 -13681821#0 -13682433#5 -13682433#4 -13682433#3 -13682433#2 -13682433#1 -13682433#0 129441444#32 129441444#33 129441444#34 129441444#35 129441444#36 129441444#37 129441444#38 129441444#39 129441444#40 1223623587 1223623588#0 1223623588#1 1223623589#0 1223623589#1 1223623590#0 1223623590#1 1223623593#0 1223623593#1 1223623593#2 1223623594#0 1223623594#1 1223623594#2 1223623594#3 1223623594#4 1223623594#5 1223623594#6 1223623594#7 1223623594#8 1223623594#9 1223623594#10 129441440 -613382845#3 -613382845#2 -613382845#1 -13681344#5 -13681344#4 -13681344#3 -13681344#2 -13681344#1 -13681560 13682466#4 -13682467#3 13678087"/>
    </vehicle>
    <vehicle id="6" depart="6.00">
        <route edges="-1291555014#2 -13680809#4 -13680809#3 -13680809#2 -13680809#1 -13680809#0 -13681361 1298127589#0 1298127589#1 1298127590#0 1298127590#1 1298127590#2 1298127652 13681299#0 13683131#1 13683131#2 13683131#3 13683131#4 13683131#5 13683131#6 13683131#7 13683131#8 13683131#9 13683131#10 13683131#11 13683131#12 13683131#13 13683131#14 895034484 13682429#1 13682429#2 13682429#3 13682429#4 13682429#5 13682429#6 13682429#7 13682429#8 13682429#9 13682429#10 13682429#11 13682429#12 13682429#13 13682429#14 13682429#15 13682429#16 13682429#17 13682429#18 13682429#19 13682757#0 13682757#1 13682757#2 13682757#3 1223122990#0 1223122990#1 1223122989#0 1223122989#1 1223122988#0 1223122988#1 13681607#0 13681607#1 13681607#2 13681607#3 13681607#4 13681607#5 13681607#6 13681607#7 13681607#8 13681607#9 13681607#10 1223122921 1223122922 1223122917 1223122923#0 1223122923#1 1223122923#2 1223122923#3 1223122924#0 1223122924#1 1223122926#0 1223122926#1 1223122926#2 1223122926#3 1223122926#4 13681424#0 13681424#1 13681424#2 13681424#3 13681424#4 13681424#5 13681424#6 13680503 13680500#0 13680500#1 13680500#2 13680500#3 13680500#4 -13681851#2 -13681851#1 -13681851#0"/>
    </vehicle>
    <vehicle id="7" depart="7.00">
        <route edges="13681440 13679424#0 -13678384#0 -589357403#6 -589357403#5 -589357403#4 -589357403#3 -589357403#2 -589357403#1 -589357403#0 589357405#4 589357405#5 589357405#6 589357405#7 589357405#8 589357405#9 589357400#0 589357400#1 589357400#2 589357400#3 589357400#4 -203381205#5 -203381205#4 -203381205#3 -203381205#2 -203381205#1 -203381205#0 119645068#0 119645068#1 119645068#2 119645068#3 895034493 13683131#0 13683131#1 13683131#2 13683131#3 13683131#4 13683131#5 13683131#6 13683131#7 13683131#8 13683131#9 13683131#10 13683131#11 13683131#12 13683131#13 13683131#14 895034484 895011684#0 895011684#1 895011684#2 895011684#3 895011684#4 895011684#5 895011684#6 895011684#7 895011684#8 895011684#9 895011684#10 895011684#11 895011684#12 895011684#13 -13681576#36 -13681576#35 -13681576#34 -13681576#33 -13681576#32 -13681576#31 -13681576#30 -13681576#29 -13681576#28 -13681576#27 -13681576#26 -13681576#25 -13681576#24 -13681576#23 -13681576#22 13680423#12 13680423#13 13680423#14 13680423#15 13680423#16 13680423#17 13680423#18 13680423#19 13680423#20 13680423#21"/>
    </vehicle>
    <vehicle id="8" depart="8.00">
        <route edges="-13682010#1 -13682010#0 -13682173#7 -13682173#6 -13682173#5 -13682173#4 -13682173#3 -13682173#2 -13682173#1 -13682173#0 13680375 13680347#0 13680347#1 13680347#2 13680347#3 13680347#4 13680347#5 13680347#6 13680347#7 -202055014#2 -202055014#1 -202055014#0 13680244#0 13680244#1 202055012#0 202055012#1 202055012#2 202055012#3 202055012#4 202055012#5 202055012#6 202055012#7 202055012#8 202055012#9 202055012#10 13680903#0 13680903#1 13680903#2 13680903#3 13680903#4 13680903#5 13680903#6 13680903#7 13680903#8 13680903#9 13680903#10 518342938#0 518342938#1 518342938#2 518342938#3 518342938#4 518342938#5 518342938#6 518342938#7 518342938#8 518342938#9 518342938#10 518342938#11 518342938#12 71469344 -897289320#1 -897289320#0 -13681151#33 -13681151#32 -13681151#31 -13681151#30 -13681151#29 -13681151#28 -13681151#27 -13681151#26 -13681151#25 -13681151#24 -13681151#23 -13681151#22 -13681151#21 -13681151#20 -13681151#19 -13681151#18 -13681151#17 -13681151#16 -13681151#15 -13681151#14 -13681151#13 -13681151#12 -13681151#11 -13681151#10 -13681151#9 -13681151#8 -13681151#7 -13681151#6 -13681151#5 -13681151#4 -13681151#3 -13681151#2 -13681151#1 -13681151#0 -497742020 -504090216 -497742021#20 -497742021#19 -497742021#18 -497742021#17 -497742021#16 -497742021#15 -497742021#14 1223122984#0 1223122984#1 1223122984#2 1223122984#3 1223122984#4 1223122984#5 1223122984#6 1223122982#0 1223122982#1 1223122983#0 1223122983#1 13681803#0 13681803#1 13681803#2 13681803#3 13681803#4 13681803#5 13681803#6 13681803#7 13681803#8 13681803#9 13681803#10 13681803#11 13681803#12 13681803#13 13681803#14 -13680893#2 -13680893#1 13680893#1"/>
    </vehicle>
    <vehicle id="9" depart="9.00">
        <route edges="192952205#4 192952205#5 192952205#6 192952205#7 192952205#8 192952205#9 74543364#6 74543364#7 74543364#8 74543358#0 74543358#1 74543358#2 74543358#3 74543358#4 13680903#0 13680903#1 13680903#2 13680903#3 13680903#4 13680903#5 13680903#6 13680903#7 13680903#8 13680903#9 13680903#10 -13682482#4 -13682482#3 -13682482#2 -13682482#1 -13682482#0 -202055015#1 -202055015#0 -897289329#5 -897289329#4 -897289329#3 -897289329#2 -897289329#1 -897289329#0 -589357400#4 -589357400#3 -589357400#2 -589357400#1 -589357400#0 -589357405#9 -589357405#8 -589357405#7 -589357405#6 589357402#1 589357402#2 -119655169#1"/>
    </vehicle>
    <vehicle id="10" depart="10.00">
        <route edges="191800397 -13680947#3 -13681310#3 -13681310#2 -13681310#1 -13681310#0 -13680808#1 -13680808#0 13682447#2 13682447#3 13681524#34 13681524#35 13681524#36 13681524#37 13681524#38 13681524#39 13681524#40 13681524#41 13681524#42 13681524#43 13681524#44 13681524#45 13681524#46 13681524#47 13681524#48 13681524#49 13681524#50 13681524#51 13681524#52 13681524#53 13681524#54 13681524#55 13681524#56 13681524#57 13681524#58 13681524#59 13681524#60 13681524#61 13681524#62 13681524#63 13681524#64 13681524#65 13681524#66 895034486#4 895034486#5 895034486#6 895034486#7 895034486#8 895011683#0 895011683#1 895011683#2 895011683#3 895011683#4 895011683#5 895011683#6 895011683#7 895034495 89626853 72613352 13678118#0 13678118#1 -378520703#1 -378520703#0 -202055019#3 -202055019#2 -202055019#1 -202055019#0 13682482#0 13682482#1 13682482#2 13682482#3 13682482#4 -13680903#10 -13680903#9 -13680903#8 -13680903#7 -13680903#6 -13680903#5 -13680903#4 -13680903#3 -13680903#2 -13680903#1 -13680903#0 -202055012#10 -202055012#9 -202055012#8 -202055012#7 -202055012#6 -202055012#5 -202055012#4 -202055012#3 -202055012#2 -202055012#1 -202055012#0 -13680244#1 -13680244#0 202055014#0 202055014#1 202055014#2 -13680347#7 -13680347#6 -13680347#5 -13680347#4 -13680347#3 -13680347#2 -13680347#1 -13680347#0 37138317#0 13682104#0 13682104#1 13682104#2"/>
    </vehicle>
    <vehicle id="11" depart="11.00">
        <route edges="-202055018#12 13680663#0 13680663#1 13680663#2 13680663#3 13680663#4 13680663#5 13680663#6 13680663#7 13680663#8 13680663#9 13680663#10 -13681299#9 -13681299#8 -13681299#7 -13681299#6 -13681299#5 -13681299#4 -13681299#3 -13681299#2 -13681299#1 13683131#1 13683131#2 13683131#3 13683131#4 13683131#5 13683131#6 13683131#7 13683131#8 13683131#9 13683131#10 13683131#11 13683131#12 13683131#13 -1159061926#0 -13681524#66 -13681524#65 -13681524#64 -13681524#63 -13681524#62 -13681524#61 -13681524#60 -13681524#59 -13681524#58 -13681524#57 -13681524#56 -13681524#55 -13681524#54 -13681524#53 -13681524#52 -13681524#51 -13681524#50 -13681524#49 -13681524#48 -13681524#47 -13681524#46 -13681524#45 -13681524#44 -13681524#43 -13681524#42 -13681524#41 -13681524#40 -13681524#39 -13681524#38 -13681524#37 -13681524#36 -13681524#35 -13681524#34 -13682447#3 -13682447#2 -13682447#1 -13681373#0"/>
    </vehicle>
    <vehicle id="12" depart="12.00">
        <route edges="895007899#45 895007899#46 895007899#47 895007899#48 895007899#49 895007899#50 895011686#0 895011686#1 895011686#2 895011686#3 895011686#4 895011686#5 895011686#6 895011686#7 895011686#8 895011686#9 895011686#10 895011686#11 895011686#12 895011686#13 895011686#14 895011686#15 895011686#16 895011686#17 895011686#18 895011686#19 895011686#20 895011686#21 895011686#22 895011686#23 895011686#24 895011686#25 895011686#26 895011686#27 895034486#0 895034486#1 895034486#2 895034486#3 895034486#4 895034486#5 895034486#6 895034486#7 895034486#8 895011683#0 895011683#1 895011683#2 895011683#3 895011683#4 895011683#5 895011683#6 -1298127652 -1298127590#2 -1298127590#1 -1298127590#0 -1298127589#1 -1298127589#0 -209364536#3 -209364536#2 -209364536#1"/>
    </vehicle>
    <vehicle id="13" depart="13.00">
        <route edges="-13680558#0 13680556 -13680557#1 -13680557#0 -13680663#27 -13680663#26 -13680663#25 -13680663#24 -13680663#23 -13680663#22 -13680663#21 -13680663#20 -13680663#19 -13680663#18 -13680663#17 -13680663#16 -13680663#15 -13680663#14 -13680663#13 -13680663#12 -13680663#11 -13680663#10 -13680663#9 -13680663#8 -13680663#7 -13680663#6 -13680663#5 -13680663#4 -13680663#3 -13680663#2 -13680663#1 -13680663#0 13680636#0 13680636#1 13680636#2 13680636#3 -13680636#3 -13680636#2 -13680636#1"/>
    </vehicle>
    <vehicle id="14" depart="14.00">
        <route edges="292071075#2 -292071065 292071070#2 292071070#3 -13680997#2 -13680997#1 -13680997#0 13681282#2 13681282#3 13681282#4 13681282#5 13681282#6 13681282#7 13681282#8 13681282#9 13681282#10 13681282#11 -13681524#31 -13681524#30 -13681524#29 -13681524#28 -13681524#27 -13681524#26 -13681524#25 -13681524#24 -13681524#23 -13681524#22 -13681524#21 -13681524#20 -13681524#19 -13681524#18 -13681524#17 -13681524#16 13681190#0 13681190#1 13681075#1 13681075#2"/>
    </vehicle>
    <vehicle id="15" depart="15.00">
        <route edges="191800400#5 -191800400#5 -191800400#4 -191800400#3 -191800400#2 -191800400#1 -13681613#4 -13681711#1 -13681097#4 -13681097#3 -13681097#2 -13681097#1 -13681097#0 13681524#18 13681524#19 13681524#20 13681524#21 13681524#22 13681524#23 13681524#24 13681524#25 13681524#26 13681524#27 13681524#28 13681524#29 13681524#30 13681524#31 13681524#32 13681524#33 13681524#34 13681524#35 13681524#36 13681524#37 13681524#38 13681524#39 13681524#40 13681524#41 13681524#42 13681524#43 13681524#44 13681524#45 13681524#46 13681524#47 13681524#48 13681524#49 13681524#50 13681524#51 13681524#52 13681524#53 13681524#54 13681524#55 13681524#56 13681524#57 13681524#58 13681524#59 13681524#60 13681524#61 13681524#62 13681524#63 13681524#64 13681524#65 13681524#66 1159061926#0 13683131#14 895034484 13682429#1 13682429#2 13682429#3 13682429#4 13682429#5 13682429#6 13682429#7 13682429#8 13682429#9 13682429#10 13682429#11 13682429#12 13682429#13 13682429#14"/>
    </vehicle>
    <vehicle id="16" depart="16.00">
        <route edges="13679424#5 13678345#0 13678345#1 13678345#2 -13678345#2 -13678345#1 -13678345#0 -13679424#5 -13679424#4 -13679424#3 -13679424#2 -13679424#1 -13678384#0 -589357403#6 -589357403#5 -589357403#4 -589357403#3 -589357403#2 -589357403#1 -589357403#0 589357405#4 589357405#5 589357405#6 589357405#7 589357405#8 589357405#9 589357400#0 589357400#1 589357400#2 589357400#3 589357400#4 -203381205#5 -203381205#4 -203381205#3 -203381205#2 -203381205#1 -203381205#0 119645068#0 119645068#1 119645068#2 119645068#3 895034493 13683131#0 -13681299#0 895011683#7 895034495"/>
    </vehicle>
    <vehicle id="17" depart="17.00">
        <route edges="-292121802#11 292121802#11 292121802#12 292121802#13 292121802#14 292121802#15 292121802#16 292121802#17 292121802#18 292121802#19 292121802#20 292121802#21 292121802#22 292121802#23 292121802#24 292121802#25 292121802#26 292121802#27 292121802#28 292121802#29 292121802#30 292121802#31 292121802#32 209364526 209364533#4 209364533#5 209364533#6 209364533#0 209364539 1291555117#0 1291555117#1 589357400#0 589357400#1 589357400#2 589357400#3 589357400#4 897289329#0 897289329#1 897289329#2 897289329#3 897289329#4 897289329#5 202055015#0 202055015#1 202055019#0 202055019#1 202055019#2 202055019#3 378520703#0 378520703#1 378520702#0 378520702#1 378520702#2 378520702#3 202055018#0 202055018#1 202055018#2 202055018#3 202055018#4 202055018#5 202055018#6 202055018#7 202055018#8 202055018#9 202055018#10 202055018#11 202055018#12 202055018#13 202055018#14 202055018#15 202055018#16 202055018#17 202055018#18 202055018#19 202055018#20 202055018#21 202055018#22 202055018#23 202055018#24 202055018#25 -13682237#34 -13682237#33 -13682237#32 -13682237#31 -13682237#30 -13682237#29 1159061926#17 1159061926#18 1159061926#19 1159061926#20 1159061926#21 1159061926#22 1223122984#0 1223122984#1 1223122984#2 1223122984#3 1223122984#4 1223122984#5 1223122984#6 1223122982#0 1223122982#1 1223122983#0 1223122983#1 13681803#0 13681803#1 13680342#0 13680342#1 13680342#2 13680342#3 13680342#4 13680342#5 13680342#6 13680342#7 13680342#8 13680342#9 13680448"/>
    </vehicle>
    <vehicle id="18" depart="18.00">
        <route edges="203381197#6 13680806#14 13680806#15 -886071145#4 -886071145#3 -886071145#2 -886071145#1 -886071145#0 13681639#0 13681639#1 13681639#2 13681639#3 13681639#4 13681639#5 13681639#6 13681639#7 13681639#8 13682237#0 13682237#1 13682237#2 13682237#3 13682237#4 13682237#5 13682237#6 13682237#7 13682237#8 13682237#9 13682237#10 13682237#11 13682429#16 13682429#17 13682429#18 13682429#19 497742021#0 497742021#1 497742021#2 497742021#3 497742021#4 497742021#5 497742021#6 497742021#7 497742021#8 497742021#9 497742021#10 497742021#11 497742021#12 497742021#13 497742021#14 497742021#15 497742021#16 497742021#17 497742021#18 497742021#19 497742021#20 13682386#0 13682386#1 13682386#2 13682386#3 13682386#4 13682386#5 13682386#6 129441569 1223122980 484139258 1223122979 484139256 1223122978 990656282#0 990656282#1 990656282#2 1253791876 76608593#0 76608593#1 76608593#2 76608593#3 76608593#4 1223122972 1223122973 1223122971#0 1223122971#1 886092094#0 74543431#0 74543431#1 74543431#2 74543431#3 74543355#0 74543355#1 74543355#2 74543355#3 74543355#4 74543355#5 -201180111 886096995#6 13681232#0"/>
    </vehicle>
    <vehicle id="19" depart="19.00">
        <route edges="292119445#1 292119445#2 13681524#60 13681524#61 13681524#62 13681524#63 13681524#64 13681524#65 13681524#66 1159061926#0 13683131#14 895034484 13682429#1 13682429#2 13682429#3 13682429#4 13682429#5 13682429#6 13682429#7 13682429#8 13682429#9 13682429#10 13682429#11 13682429#12 13682429#13 13682429#14 13682429#15 13682429#16 13682429#17 13682429#18 13682429#19 13682757#0 13682757#1 13682757#2 13682757#3 1223122990#0 1223122990#1 -1223122992#1 -1223122992#0 -1223122993#1 -1223122993#0 -1223122998 -1223122995#1 -1223122995#0 13682122#0 13680749"/>
    </vehicle>
    <vehicle id="20" depart="20.00">
        <route edges="13682117#2 13682117#3 13680849#3 13680849#4 13680849#5 13680849#6 13680849#7 13680849#8 13680849#9 13680849#10 13680849#11 13680849#12 13680849#13 13680849#14 13680849#15 13680849#16 13680849#17 13680849#18 13680849#19 13680849#20 13680849#21 13680849#22 13680849#23 13680849#24 13680849#25 13680849#26 13680849#27 378571528 209364533#6 209364533#0 209364539 1291555117#0 1291555117#1 589357400#0 589357400#1 589357400#2 589357400#3 589357400#4 -203381205#5 -203381205#4 -203381205#3 -203381205#2 -203381205#1 -203381205#0 119645068#0 119645068#1 119645068#2 -378569216 -897289331 -13678271#4 -13678271#3"/>
    </vehicle>
    <vehicle id="21" depart="21.00">
        <route edges="-13682104#4 -13682104#3 -13682104#2 -13682104#1 -13682104#0 -37138317#0 13680347#0 13680347#1 13680347#2 13680347#3 13680347#4 13680347#5 13680347#6 13680347#7 202055014#3 202055014#4 202055014#5 202055014#6 202055014#7 202055014#8 202055014#9 202055014#10 202055014#11 202055014#12 202055014#13 202055014#14 202055014#15 202055014#16 202055014#17 202055014#18 202055014#19 202055014#20 202055014#21 202055014#22 202055014#23 202055014#24 202055014#25 202055014#26 202055014#27 202055014#28 202055014#29 202055014#30 202055014#31 202055014#32 202055014#33 13681102#0 13681102#1 13681102#2 13682890#0 13682890#1 13682890#2 13682890#3 13682890#4 13682890#5 13682890#6 13682890#7 13682886 13682885#0 13682885#1 13682885#2 13682885#3 13682885#4 13682885#5 -13680334#4 -13680334#3 -13683081"/>
    </vehicle>
    <vehicle id="22" depart="22.00">
        <route edges="-13680423#2 -13680423#1 -13680423#0 13681524#37 13681524#38 13681524#39 13681524#40 13681524#41 13681524#42 13681524#43 13681524#44 13681524#45 13681524#46 13681524#47 13681524#48 13681524#49 13681524#50 13681524#51 13681524#52 13681524#53 13681524#54 13681524#55 13681524#56 13681524#57 13681524#58 13681524#59 13681524#60 13681524#61 13681524#62 13681524#63 13681524#64 13681524#65 13681524#66 1159061926#0 13683131#14 895034484 13682429#1 13682429#2 13682429#3 13682429#4 13682429#5 13682429#6 13682429#7 13682429#8 13682429#9 13682429#10 13682429#11 13682429#12 13682429#13 13682429#14 13682429#15 13682429#16 13682429#17 13682429#18 13682429#19 497742021#0 497742021#1 497742021#2 497742021#3 497742021#4 497742021#5 497742021#6 497742021#7 497742021#8 497742021#9 497742021#10 497742021#11 497742021#12 497742021#13 497742021#14 497742021#15 497742021#16 497742021#17 497742021#18 497742021#19 497742021#20 13682386#0 13682386#1 13682386#2 13682386#3 13682386#4 13682386#5 13682386#6 13682386#7 13682386#8 13682386#9 13680435#1 13680435#2 13680435#3 13680769#0 13680769#1 -13682259#0"/>
    </vehicle>
    <vehicle id="23" depart="23.00">
        <route edges="-13680636#1 -13680636#0 -202055018#11 -202055018#10 -202055018#9 -202055018#8 -202055018#7 -202055018#6 -202055018#5 -202055018#4 -202055018#3 -202055018#2 -202055018#1 -202055018#0 -378520702#3 -378520702#2 -378520702#1 -378520702#0 -378520703#1 -378520703#0 -202055019#3 -202055019#2 -202055019#1 -202055019#0 13682482#0 13682482#1 13682482#2 13682482#3 13682482#4 -13680903#10 -13680903#9 -13680903#8 -13680903#7 -13680903#6 -13680903#5 -13680903#4 -13680903#3 -13680903#2 -13680903#1 -13680903#0 -202055012#10 -202055012#9 -202055012#8 -202055012#7 -202055012#6 -202055012#5 -202055012#4 -202055012#3 -202055012#2 -202055012#1 -202055012#0 -13680244#1 -13680244#0 202055014#0 202055014#1 202055014#2 202055014#3 202055014#4 202055014#5 202055014#6 202055014#7 202055014#8 202055014#9 202055014#10 202055014#11 202055014#12 202055014#13 202055014#14 202055014#15 202055014#16 202055014#17 202055014#18 202055014#19 202055014#20 202055014#21 202055014#22 202055014#23 202055014#24 202055014#25 202055014#26 202055014#27 202055014#28 202055014#29 202055014#30 202055014#31 202055014#32 202055014#33 13681102#0 13681102#1 13681102#2 13682890#0 13682890#1 13682890#2 13682890#3 13682890#4 13682890#5 13682890#6 13682890#7 13682886 13682885#0 13682885#1 13682885#2 13682885#3 13682885#4 13682885#5 -13682885#5"/>
    </vehicle>
    <vehicle id="24" depart="24.00">
        <route edges="13681299#7 13681299#8 13681299#9 -13680663#10 -13680663#9 -13680663#8 -13680663#7 -13680663#6 -13680663#5 -13680663#4 -13680663#3 -13680663#2 -13680663#1 -13680663#0 -202055018#11 -202055018#10 -202055018#9 -202055018#8 -202055018#7 -202055018#6 -202055018#5 -202055018#4 -202055018#3 -202055018#2 -202055018#1 -202055018#0 -378520702#3 -378520702#2 -378520702#1 -378520702#0 -378520703#1 -378520703#0 -202055019#3 -202055019#2 -202055019#1 -202055019#0 -202055015#1 -202055015#0 -897289329#5 -897289329#4 -897289329#3 -897289329#2 -897289329#1 -897289329#0 -589357400#4 -589357400#3 -589357400#2 -589357400#1 -589357400#0 -1291555117#1 -1291555117#0 209364523 209364533#2 209364531 -292121802#32 -292121802#31 -292121802#30 -292121802#29 -292121802#28 -292121802#27 -292121802#26 -292121802#25 -292121802#24 -292121802#23 -292121802#22 -292121802#21 -292121802#20 -292121802#19 -292121802#18 -292121802#17 -292121802#16 -292121802#15 -292121802#14 -292121802#13 -292121802#12"/>
    </vehicle>
    <vehicle id="25" depart="25.00">
        <route edges="-292114870 -292114866#0 13681238#7 13681238#8 13681238#9 1223623584 1223623583#0 1223623583#1 1223623583#2 1223623581 1223623596#0 1223623596#1 1223623596#2 1223623585 1223623595#0 1223623595#1 1223623595#2 1223623592 1223623591#0 1223623591#1 895007899#0 895007899#1 895007899#2 895007899#3 895007899#4 895007899#5 895007899#6 895007899#7 895007899#8 895007899#9 895007899#10 895007899#11 895007899#12 895007899#13 895007899#14 895007899#15 895007899#16 895007899#17 895007899#18 895007899#19 895007899#20 895007899#21 895007899#22 895007899#23 895007899#24 895007899#25 895007899#26 895007899#27 895007899#28 895007899#29 895007899#30 895007899#31 895007899#32 895007899#33 895007899#34 895007899#35 895007899#36 895007899#37 895007899#38 895007899#39 895007899#40 895007899#41 895007899#42 895007899#43 895007899#44 895007899#45 895007899#46 895007899#47 895007899#48 895007899#49 895007899#50 895011686#0 895011686#1 895011686#2 895011686#3 895011686#4 895011686#5 895011686#6 895011686#7 895011686#8 895011686#9 895011686#10 -13681576#35 -13681576#34 -13681576#33 -13681576#32 -13681576#31 -13681576#30 -13681576#29 -13681576#28 -13681576#27 -13681576#26 -13681576#25 -13681576#24 -13681576#23 -13681576#22 -13681576#21 -13681576#20 -13681576#19 13681282#0 13681282#1 13681282#2 13681282#3 13681282#4 13681282#5 13681282#6 13681282#7 13681282#8 13681282#9 13681282#10 13681282#11 -13681524#31 -13681524#30 -13681524#29 -13681524#28 -13681524#27 -13681524#26 -13681524#25 -13681524#24 -13681524#23 -13681524#22 -13681524#21 -13681524#20 13682006#0 13682006#1 13682006#2 -13682006#2"/>
    </vehicle>
    <vehicle id="26" depart="26.00">