<?xml version="1.0" encoding="UTF-8"?>

<!-- generated on 2025-04-09 20:34:36.784653 by randomTrips.py v1_22_0+0002-63e50f52594
<configuration>
    <net-file value="map.net.xml"/>
    <route-file value="routes.rou.xml"/>
    <end value="300.0"/>
    <period value="1.0"/>
</configuration>
-->

<!-- generated on 2025-04-09 20:34:36 by Eclipse SUMO duarouter Version 1.22.0
<duarouterConfiguration xmlns:xsi="http://www.w3.org/2001/XMLSchema-instance" xsi:noNamespaceSchemaLocation="http://sumo.dlr.de/xsd/duarouterConfiguration.xsd">

    <input>
        <net-file value="map.net.xml"/>
        <route-files value="trips.trips.xml"/>
    </input>

    <output>
        <output-file value="routes.rou.xml"/>
        <alternatives-output value="NUL"/>
    </output>

    <time>
        <begin value="0"/>
        <end value="300.0"/>
    </time>

    <report>
        <no-warnings value="true"/>
        <ignore-errors value="true"/>
        <no-step-log value="true"/>
    </report>

</duarouterConfiguration>
-->

<routes xmlns:xsi="http://www.w3.org/2001/XMLSchema-instance" xsi:noNamespaceSchemaLocation="http://sumo.dlr.de/xsd/routes_file.xsd">
    <vehicle id="0" depart="0.00">
        <route edges="13681344#5 613382845#1 613382845#2 613382845#3 1223623586 1223623582#0 1223623581 1223623596#0 1223623585 1223623595#0 1223623592 1223623591#0 1223623591#1 895007899#0 895007899#1 895007899#2 895007899#3 895007899#4 895007899#5 895007899#6 895007899#7 895007899#8 895007899#9 895007899#10 895007899#11 895007899#12 895007899#13 895007899#14 895007899#15 895007899#16 895007899#17 895007899#18 895007899#19 895007899#20 895007899#21 895007899#22 895007899#23 895007899#24 895007899#25 895007899#26 895007899#27 895007899#28 895007899#29 895007899#30 895007899#31 895007899#32 895007899#33 895007899#34 895007899#35 895007899#36 895007899#37 895007899#38 895007899#39 895007899#40 895007899#41 895007899#42 895007899#43 895007899#45 895007899#46 895007899#47 895007899#49 895007899#50 895011686#0 895011686#1 895011686#2 895011686#3 895011686#4 895011686#5 895011686#6 895011686#7 895011686#8 895011686#9 895011686#10 895011686#12 895011686#13 895011686#14 895011686#16 895011686#17 895011686#18 895011686#19 895011686#20 895011686#21 895011686#22 895011686#23 895011686#24 895011686#25 895011686#26 895011686#27 895034486#0 895034486#1 895034486#2 895034486#3 895034486#4 895034486#5 895034486#6 895034486#7 895034486#8 895011683#0 895011683#1 895011683#2 895011683#3 895011683#4 895011683#5 -1298127652 -1298127590#2 -1298127590#1 -1298127590#0 -1298127589#1 -1298127589#0 13681361 13680809#0 13680809#1 13680809#2 13680809#3 -1291555014#1 -1291555014#0 -1291555013#5 -1291555013#4 -1291555013#3 -1291555013#2 -1291555013#1"/>
    </vehicle>
    <vehicle id="1" depart="1.00">
        <route edges="-13682492#2 1223123008#4 1223123008#5 1223123008#6 1223123008#7 1223123001 1223123000 1223122999 1223122998 1223122993#0 1223122993#1 1223122992#0 -1223122990#0 -13682757#3 -13682757#2 -13682757#1 -13682757#0 497742021#1 497742021#2 497742021#3 497742021#4 497742021#5 497742021#6 497742021#7 497742021#8 497742021#9 497742021#10 497742021#11 497742021#12 497742021#15 497742021#16 497742021#17 497742021#18 497742021#19 497742021#20 504090216 497742020 13681151#0 13681151#1 13681151#2 13681151#3 13681151#4 13681151#5 13681151#6 13681151#7 13681151#8 13681151#11 13681151#12 13681151#13 13681151#14 13681151#15 13681151#16 13681151#17 13681151#18 13681151#19 13681151#20 13681151#24 13681151#25 13681151#26 13681151#27 13681151#28 13681151#29 13681151#30 13681151#31 13681151#32 13681151#33 897289320#0 897289320#1 -71469344 -518342938#12 -518342938#11 -518342938#10 -518342938#9 -518342938#8 -518342938#6 -518342938#5 -518342938#3 -518342938#2 -518342938#1 -13680903#9 -13680903#7 -13680903#6 -13680903#5 -13680903#4 -13680903#1 -202055012#9 -202055012#8 -202055012#7 -202055012#6 -202055012#5 -202055012#4 -202055012#3 -202055012#2 -202055012#1 -13680244#1 202055014#1 202055014#2 -13680347#6 -13680347#5 -13680347#4 -13680347#2 -13680347#0 37138317#0 13682104#0 13682104#1 13682104#2 13682104#3 13682104#4 -13682173#11 -13682173#10"/>
    </vehicle>
    <vehicle id="2" depart="2.00">
        <route edges="13682432#2 -13682432#2 -13682432#1 -13682432#0 13681524#8 13681524#9 13681524#10 13681524#11 13681524#13 13681524#14 13681524#15 13681524#16 13681524#17 13681524#18 13681524#19 13681524#20 13681524#21 13681524#22 13681524#23 13681524#24 13681524#25 13681524#26 13681524#27 13681524#28 13681524#29 13681524#30 13681524#31 13681524#32 13681524#33 13681524#34 13681524#35 13681524#36 13681524#37 13681524#38 13681524#40 13681524#41 13681524#42 13681524#45 13681524#46 13681524#47 13681524#48 13681524#49 13681524#51 13681524#52 13681524#53 13681524#54 13681524#55 13681524#56 13681524#58 13681524#60 13681524#61 13681524#63 13681524#64 13681524#66 13683131#14 895034484 13682429#1 13682429#2 13682429#3 13682429#4 13682429#6 13682429#7 13682429#8 13682429#9 13682429#11 13682429#12 13682429#13 13682429#14 13682429#17 13682429#18 13682429#19 13682757#0 13682757#1 13682757#2 13682757#3 1223122990#0 1223122989#1 1223122988#0 1223122988#1 13681607#0 13681607#1 13681607#2 13681607#3 13681607#4 13681607#5 13681607#6 13681607#7 13681607#8 13681607#9 13681607#10 1223122921 1223122922 1223122917 1223122923#0 13681815#1"/>
    </vehicle>
    <vehicle id="3" depart="3.00">
        <route edges="353261802 -353261802 13681108#0 13681108#1 886071145#4 -13680806#15 -13680806#14 -13680806#12 -13680806#11 -13680806#10 -13680806#9 -13680806#7 -13680806#6 -13680806#4 -13680806#2 -13680806#1 -13680806#0 -886071146#2 -886071146#1 129441444#15 129441444#16 129441444#17 129441444#18 129441444#19 129441444#20 129441444#21 129441444#22 129441444#23 129441444#24 13680550#1 13680550#2 -13680550#2"/>
    </vehicle>
    <vehicle id="4" depart="4.00">
        <route edges="-589357403#4 -589357403#3 -589357403#2 -589357403#1 -589357403#0 589357405#4 589357405#5 589357405#6 589357405#7 589357405#8 589357405#9 589357400#0 589357400#1 589357400#2 589357400#3 589357400#4 -203381205#5 -203381205#4 -203381205#3 -203381205#2 -203381205#1 -203381205#0 119645068#0 119645068#2 119645068#3 895034493 -1298127652 -1298127590#2 -1298127590#1 -1298127590#0"/>
    </vehicle>
    <vehicle id="5" depart="5.00">
        <route edges="-13681964#11 -13681964#10 -13681964#9 13681964#9 13681964#10 13681964#11 13681964#12 13681964#13 13681964#14 895007899#37 895007899#38 895007899#39 895007899#40 895007899#41 895007899#42 886071146#1 886071146#2 13680806#0 13680806#1 13680806#2 13680806#4 13680806#6 13680806#7 -13681476#5 -13681476#3 -13681476#2 -13681476#1 -13681476#0 -13682474#4 -13682474#3 -13682474#2 -13682474#1 -13682474#0 -13680663#26 -13680663#25 -13680663#22 -13680663#21 -13680663#20 -13680663#19 -13680663#18 -13680663#15 -13680663#14 -13680663#13 -13680663#12 -13680663#11 -13680663#9 -13680663#8 -13680663#7 -13680663#6 -13680663#5 -13680663#4 -13680663#3 -13680663#2 -13680663#1 -202055018#10 -202055018#9 -202055018#8 -202055018#7 -202055018#6 -202055018#4 -202055018#2 -202055018#1 -378520702#3 -378520702#2 -378520702#1 13678118#2 990662001#0 990662001#1 292134211 292134214 76608602#0 119645063 1223122972 1223122973 1223122971#0 886092094#2 886092094#3 886092094#4 1223122966 1223122965 1223122962#0 1223122962#1 1223122961 51984337 1223122958 1223122957#0 1223122957#1 1223122956 1223122955 895706733 1223122952 991065298#2 991065298#3 -13679002#7 -13679002#6 -119662156#4 13678132#1 13678132#2 13678132#3"/>
    </vehicle>
    <vehicle id="6" depart="6.00">
        <route edges="-1291555117#3 1291555117#3 1291555117#4 1291555117#5 1291555117#6 209364536#0 209364536#1 209364536#2 209364536#3 1298127589#0 1298127589#1 1298127590#0 1298127590#1 1298127590#2 1298127652 13683131#1 13683131#2 13683131#3 13683131#4 13683131#5 13683131#6 13683131#7 13683131#8 13683131#9 13683131#10 13683131#11 13683131#12 13683131#13 13683131#14 895034484 895011684#0 895011684#1 895011684#2 895011684#3 895011684#4 895011684#5 895011684#6 895011684#7 895011684#8 895011684#9 895011684#11 895011684#12 895011684#13 895011684#14 895011684#15 895011684#16 895011684#17 895011684#18 895011684#19 895011684#20 129441444#0 129441444#1 129441444#2 129441444#3 129441444#5 129441444#6 129441444#7 129441444#8 129441444#9 129441444#10 129441444#12 129441444#13 129441444#14 129441444#15 129441444#16 129441444#17 129441444#18 129441444#19 129441444#20 -13681964#14 -13681964#13 -13681964#12 -13681964#11 -13681964#10 -13681964#9 -13681821#4"/>
    </vehicle>
    <vehicle id="7" depart="7.00">
        <route edges="13681433#4 13681433#5 -13681433#5 -13681433#4 -13681433#3 -13681433#2 -13681433#1 -13681433#0 -886071145#4 -886071145#3 -13680617#15 -13680617#13 -13680617#12 -13680617#11 -13680617#10 -13680617#9 -13680617#8 -13680617#7 -13680617#6 -13680617#5 -13680617#4 -13680617#3 -13680617#2 -13680617#1 -13680617#0 -13681576#35 -13681576#34 -13681576#33 -13681576#32 -13681576#31 -13681576#30 -13681576#29 -13681576#28 -13681576#27 -13681576#26 -13681576#25 -13681576#24 -13681576#23 -13681576#22 13680423#12 13680423#13 13680423#14 13680423#15 13680423#16 13680423#17 13680423#18 13680423#19 13680423#20 13680423#21 13680423#23 13680423#24 13680423#26 13680423#27 13680423#28 13680423#29"/>
    </vehicle>
    <vehicle id="8" depart="8.00">
        <route edges="-13681973 13681973 13681344#0 13681344#1 13681344#2 13681344#3 13681344#4 13681344#5 613382845#1 613382845#2 613382845#3 1223623586 1223623582#0 1223623581 1223623596#0 1223623585 1223623595#0 1223623592 1223623591#0 1223623591#1 895007899#0 895007899#1 895007899#2 895007899#3 895007899#4 895007899#5 895007899#6 895007899#7 895007899#8 895007899#9 895007899#10 895007899#11 895007899#12 895007899#13 895007899#14 895007899#15 895007899#16 895007899#17 895007899#18 895007899#19 895007899#20 895007899#21 895007899#22 895007899#23 895007899#24 895007899#25 895007899#26 895007899#27 895007899#28 895007899#29 895007899#30 895007899#31 895007899#32 895007899#33 895007899#34 895007899#35 895007899#36 895007899#37 895007899#38 895007899#39 895007899#40 895007899#41 895007899#42 895007899#43 895007899#45 895007899#46 895007899#47 895007899#49 895007899#50 895011686#0 895011686#1 895011686#2 895011686#3 895011686#4 895011686#5 895011686#6 895011686#7 895011686#8 895011686#9 895011686#10 -13681576#35 -13681576#34 -13681576#33 -13681576#32 -13681576#31 -13681576#30 -13681576#29 -13681576#28 -13681576#27 -13681576#26 -13681576#25 -13681576#24 -13681576#23 -13681576#22 -13681576#20 -13681576#19 13681282#0 13681282#1 13681282#2 13681282#3 13681282#4 13681282#5 13681282#6 13681282#7 13681282#8 13681282#9 13681282#10 13681282#11 -13681524#31 -13681524#30 -13681524#29 -13681524#28 -13681524#27 -13681524#26 -13681524#25 -13681524#24 -13681524#23 -13681524#22 -13681524#21 -13681524#20 -13681524#19 -13681524#18 -13681524#17 -13681524#16 -13681524#15 -13681524#14 -13681524#13 -13681524#11 -13681524#10 -13681524#9 -13681524#8 13680910"/>
    </vehicle>
    <vehicle id="9" depart="9.00">
        <route edges="192952205#5 192952205#6 192952205#7 192952205#8 192952205#9 74543364#7 74543364#8 74543358#1 74543358#2 74543358#3 74543358#4 13680903#1 13680903#4 13680903#5 13680903#6 13680903#7 13680903#9 -13682482#2 -13682482#1 -13682482#0 -202055015#1 -202055015#0 -897289329#5 -897289329#4 -897289329#3 -897289329#2 -897289329#1 -897289329#0 -589357400#4 -589357400#3 -589357400#2 -589357400#1 -589357400#0 -1291555117#1 -119655169#4"/>
    </vehicle>
    <vehicle id="10" depart="10.00">
        <route edges="191800399#0 -13681097#8 -13681097#7 -13681097#6 -13681097#5 -13681097#4 -13681097#3 -13681097#2 -13681097#1 -13681097#0 13681524#18 13681524#19 13681524#20 13681524#21 13681524#22 13681524#23 13681524#24 13681524#25 13681524#26 13681524#27 13681524#28 13681524#29 13681524#30 13681524#31 13681524#32 13681524#33 13681524#34 13681524#35 13681524#36 13681524#37 13681524#38 13681524#40 13681524#41 13681524#42 13681524#45 13681524#46 13681524#47 13681524#48 13681524#49 13681524#51 13681524#52 13681524#53 13681524#54 13681524#55 13681524#56 13681524#58 13681524#60 13681524#61 13681524#63 13681524#64 13681524#66 13683131#14 895034484 13682429#1 13682429#2 13682429#3 13682429#4 13682429#6 13682429#7 13682429#8 13682429#9 13682429#11 13682429#12 13682429#13 13682429#14 13682429#17 13682429#18 13682429#19 13682757#0 13682757#1 13682757#2 13682757#3 1223122990#0 1223122989#1 1223122988#0 1223122988#1 13681607#0 13681607#1 13681607#2 13681607#3 13681607#4 13681607#5 13681607#6 13681607#7 13681607#8 13681607#9 13681607#10 1223122921 -13682975#16 -13682975#15 -13682975#14 -13682975#13 -13682975#12 -13682975#11 -13682975#10 -13682975#9 -13682975#8 -13682975#7 -13682975#6 -13682975#5 13680882 13682087#4"/>
    </vehicle>
    <vehicle id="11" depart="11.00">
        <route edges="-202055016#5 -202055016#4 -202055016#3 -202055016#2 -191786480#1 -191786480#0 223422189#3 223421969#4 223421969#5 223421969#6 223421969#7 223421969#8 223421969#9 223421969#10 223421969#11 13682989#6 13682989#7 -378569209#6 -378569209#5 -378569209#3 -378569209#2 -378569209#1 -378569209#0 -203381205#5 -203381205#4 -203381205#3 -203381205#2 -203381205#1 -203381205#0 119645068#0 119645068#2 119645068#3 895034493 13683131#1 13683131#2 13683131#3 13683131#4 13683131#5 13683131#6 13683131#7 13683131#8 13683131#9 13683131#10 13683131#11 13683131#12 13683131#13 13683131#14 895034484 895011684#0 895011684#1 895011684#2 895011684#3 895011684#4 895011684#5 895011684#6 895011684#7 895011684#8 895011684#9 895011684#11 895011684#12 895011684#13 -13681576#35 -13681576#34 -13681576#33 -13681576#32 -13681576#31 -13681576#30 -13681576#29 -13681576#28 -13681576#27 -13681576#26 -13681576#25 -13681576#24 -13681576#23 -13681576#22 -13681576#20 -13681576#19 -13681576#18 -13681576#17 -13681576#16 -13681576#15 -13681576#13 -13681576#12 -13681576#11 -13681576#10 -13681576#9 -13681576#8 -13681576#7 -13681576#6 13681353 -13681353"/>
    </vehicle>
    <vehicle id="12" depart="12.00">
        <route edges="895007899#42 895007899#43 895007899#45 895007899#46 895007899#47 895007899#49 895007899#50 895011686#0 895011686#1 895011686#2 895011686#3 895011686#4 895011686#5 895011686#6 895011686#7 895011686#8 895011686#9 895011686#10 895011686#12 895011686#13 895011686#14 895011686#16 895011686#17 895011686#18 895011686#19 895011686#20 895011686#21 895011686#22 895011686#23 895011686#24 895011686#25 895011686#26 895011686#27 895034486#0 895034486#1 895034486#2 895034486#3 895034486#4 895034486#5 895034486#6 895034486#7 895034486#8 895011683#0 895011683#1 895011683#2 895011683#3 895011683#4 895011683#5 895034495 203381204#0 203381204#1 203381204#2 203381205#0 203381205#1 203381205#2 203381205#3 203381205#4 203381205#5 378569209#0 378569209#1 378569209#2 378569209#3 378569209#5 378569209#6 -13682989#7 -13682989#6 -223421969#11 -223421969#10 -223421969#9 -223421969#8 -223421969#7 -223421969#6 -223421969#5 -223421969#4 -223421969#3 -223421969#2"/>
    </vehicle>
    <vehicle id="13" depart="13.00">
        <route edges="-13680556 13680556 -13680557#1 -13680557#0 -13680663#26 -13680663#25 -13680663#22 -13680663#21 -13680663#20 -13680663#19 -13680663#18 -13680663#15 -13680663#14 -13680663#13 -13680663#12 -13680663#11 -13680663#9 -13680663#8 -13680663#7 -13680663#6 -13680663#5 -13680663#4 -13680663#3 -13680663#2 -13680663#1 13680636#1 13680636#2 13680636#3 13680636#4 -13680636#4"/>
    </vehicle>
    <vehicle id="14" depart="14.00">
        <route edges="292071086#4 292071086#5 292071086#6 -292071086#6 -292071086#5 -292071086#4 -292071086#3 -292071086#2 -292071086#1 -292071086#0 13681282#4 13681282#5 13681282#6 13681282#7 13681282#8 13681282#9 13681282#10 13681282#11 -13681524#31 -13681524#30 -13681524#29 -13681524#28 -13681524#27 -13681524#26 -13681524#25 -13681524#24 -13681524#23 -13681524#22 -13681524#21 -13681524#20 -13681524#19 -13681524#18 13681097#0 13681097#1 13681097#2 13681097#3 13681097#4 13681097#5"/>
    </vehicle>
    <vehicle id="15" depart="15.00">
        <route edges="191800400#5 -191800400#5 -191800400#4 -191800400#3 -191800400#2 -191800400#1 -13681613#4 -13681711#1 -13681097#4 -13681097#3 -13681097#2 -13681097#1 -13681097#0 13681524#18 13681524#19 13681524#20 13681524#21 13681524#22 13681524#23 13681524#24 13681524#25 13681524#26 13681524#27 13681524#28 13681524#29 13681524#30 13681524#31 13681524#32 13681524#33 13681524#34 13681524#35 13681524#36 13681524#37 13681524#38 13681524#40 13681524#41 13681524#42 13681524#45 13681524#46 13681524#47 13681524#48 13681524#49 13681524#51 13681524#52 13681524#53 13681524#54 13681524#55 13681524#56 13681524#58 13681524#60 13681524#61 13681524#63 13681524#64 13681524#66 13683131#14 895034484 13682429#1 13682429#2 13682429#3 13682429#4 13682429#6 13682429#7 13682429#8 13682429#9 13682429#11 13682429#12 13682429#13 13682429#14 13682429#17 13682429#18"/>
    </vehicle>
    <vehicle id="16" depart="16.00">
        <route edges="13679417#2 990662002#2 292134213#0 13678118#2 990662001#0 990662001#1 292134211 292134214 76608602#0 119645063 1223122972 1223122973 1223122971#0 886092094#2 886092094#3 886092094#4 1223122966 1223122965 1223122962#0 1223122962#1 1223122961 895702791#0"/>
    </vehicle>
    <vehicle id="17" depart="17.00">
        <route edges="-292119505 292119455#1 13681576#24 13681576#25 13681576#26 13681576#27 13681576#28 13681576#29 13681576#30 13681576#31 13681576#32 13681576#33 13681576#34 13681576#35 13680617#0 13680617#1 13680617#2 13680617#3 13680617#4 13680617#5 13680617#6 13680617#7 13680617#8 13680617#9 13680617#10 13680617#11 13680617#12 13680617#13 13680617#15 -886071145#2 -886071145#1 13681639#1 13681639#2 13681639#3 13681639#4 13681639#5 13681639#6 13681639#7 13682237#1 13682237#2 13682237#3 13682237#6 13682237#7 13682237#8 13682237#9 13682237#10 13682429#17 13682429#18 13682429#19 13682757#0 13682757#1 13682757#2 13682757#3 1223122990#0 1223122989#1 1223122988#0 1223122988#1 13681607#0 13681607#1 13681607#2 13681607#3 13681607#4 13681607#5 13681607#6 13681607#7 13681607#8 13681607#9 13681607#10 1223122921 1223122922 1223122917 1223122923#0 1223122923#1 1223122923#2 1223122923#3 1223122924#0 1223122924#1 1223122926#0 1223122926#1 1223122926#2 1223122926#3 13681424#0 13681424#1 13681424#2 13681424#3 13681424#4 13681424#6 13680503 13680500#0 13680500#1 13680500#2 13680500#3"/>
    </vehicle>
    <vehicle id="18" depart="18.00">
        <route edges="203381204#1 203381204#2 203381205#0 203381205#1 203381205#2 203381205#3 203381205#4 203381205#5 897289329#0 897289329#1 897289329#2 897289329#3 897289329#4 897289329#5 202055015#0 202055015#1 13682482#0 13682482#1 13682482#2 -13680903#9 -13680903#7 -13680903#6 -13680903#5 -13680903#4 -13680903#1 -74543358#4 -74543358#3 -74543358#2 -74543358#1 24850184#0 24850184#2 24850184#4 24850184#5 24850184#6 1223122970 74543431#1 74543431#2 13681232#7"/>
    </vehicle>
    <vehicle id="19" depart="19.00">
        <route edges="292119445#1 13681524#60 13681524#61 13681524#63 13681524#64 13681524#66 13683131#14 895034484 13682429#1 13682429#2 13682429#3 13682429#4 13680663#25 13680663#26 13682474#0 13682474#1 13682474#2 13682474#3 13682474#4 13681476#0 13681476#1 13681476#2 13681476#3 13681476#5 -13680806#7 -13680806#6 -13680806#4 -13680806#2 -13680806#1 -13680806#0 -13682519#7 -13682519#6 -13682519#5 13680413#1 13682197#2 13682197#3 13682197#4 13680783#0"/>
    </vehicle>
    <vehicle id="20" depart="20.00">
        <route edges="13682087#3 -13680882 13682975#5 13682975#6 13682975#7 13682975#8 13682975#9 13682975#10 13682975#11 13682975#12 13682975#13 13682975#14 13682975#15 13682975#16 -1223122921 -13681607#10 -13681607#9 -13681607#8 -13681607#7 -13681607#6 -13681607#5 -13681607#4 -13681607#3 -13681607#2 -13681607#1 -13681607#0 -1223122988#1 -1223122988#0 -1223122989#1 -1223122990#0 -13682757#3 -13682757#2 -13682757#1 -13682757#0 -13682429#19 -13682429#18 -13682429#17 -13682429#14 -13682429#13 -13682429#12 -13682429#11 -13682429#9 -13682429#8 -13682429#7 -13682429#6 -13680663#22 -13680663#21 -13680663#20 -13680663#19 -13680663#18 -13680663#15 -13680663#14 -13680663#13 -13680663#12 -13680663#11 -13681299#8 -13681299#7 -13681299#6 -13681299#5 -13681299#4 -13681299#3 -13681299#2 895034495 203381204#0 -378569216 -897289331 -13678271#4 -13678271#3 -13678271#2 -13678271#1"/>
    </vehicle>
    <vehicle id="21" depart="21.00">
        <route edges="-13682061#1 -13682061#0 -13682158#2 13682975#0 13682975#1 13682975#3 13682975#4 13682975#5 13682975#6 13682975#7 13682975#8 13682975#9 13682975#10 13682975#11 13682975#12 13682975#13 13682975#14 13682975#15 13682975#16 -1223122921 -13681607#10 -13681607#9 -13681607#8 -13681607#7 -13681607#6 -13681607#5 -13681607#4 -13681607#3 -13681607#2 -13681607#1 -13681607#0 -1223122988#1 -1223122988#0 -1223122989#1 -1223122990#0 -13682757#3 -13682757#2 -13682757#1 -13682757#0 497742021#1 497742021#2 497742021#3 497742021#4 497742021#5 497742021#6 497742021#7 497742021#8 497742021#9 497742021#10 497742021#11 497742021#12 497742021#15 497742021#16 497742021#17 497742021#18 497742021#19 497742021#20 504090216 497742020 13681151#0 13681151#1 13681151#2 13681151#3 13681151#4 13681151#5 13681151#6 13681151#7 13681151#8 13681151#11 -13680328#1 -13680328#0 -13683014#9 -13683014#8 -13683014#7 -13683014#6"/>
    </vehicle>
    <vehicle id="22" depart="22.00">
        <route edges="-13680423#15 -13680423#14 -13680423#13 -13680423#12 13681576#22 13681576#23 13681576#24 13681576#25 13681576#26 13681576#27 13681576#28 13681576#29 13681576#30 13681576#31 13681576#32 13681576#33 13681576#34 13681576#35 895011684#14 895011684#15 895011684#16 895011684#17 895011684#18 895011684#19 895011684#20 129441444#0 129441444#1 129441444#2 129441444#3 129441444#5 129441444#6 129441444#7 129441444#8 129441444#9 129441444#10 129441444#12 129441444#13 129441444#14 886071146#1 886071146#2 -13682519#7 -13682519#6 -13682519#5 -13682519#4 -13682519#3 -13682519#2 -13682519#1 -13682257#2 -13682257#1"/>
    </vehicle>
    <vehicle id="23" depart="23.00">
        <route edges="-13680636#1 -202055018#10 -202055018#9 -202055018#8 -202055018#7 -202055018#6 -202055018#4 -202055018#2 -202055018#1 -378520702#3 -378520702#2 -378520702#1 -378520703#1 -378520703#0 -202055019#3 -202055019#2 -202055019#0 13682482#0 13682482#1 13682482#2 -13680903#9 -13680903#7 -13680903#6 -13680903#5 -13680903#4 -13680903#1 -202055012#9 -202055012#8 -202055012#7 -202055012#6 -202055012#5 -202055012#4 -202055012#3 -202055012#2 -202055012#1 -13680244#1 202055014#1 202055014#2 202055014#3 202055014#4 202055014#5 202055014#6 202055014#8 202055014#9 202055014#10 202055014#11 202055014#12 202055014#13 202055014#14 202055014#15 202055014#16 202055014#17 202055014#19 202055014#20 202055014#22 202055014#23 202055014#24 202055014#26 202055014#27 202055014#28 202055014#29 202055014#30 202055014#31 202055014#32 202055014#33 13681102#0 13681102#1 13681102#2 13682890#0 13682890#1 13682890#2 13682890#4 13682890#5 13682890#6 13682890#7 13682886 13682885#0 13682885#1 -13682885#1"/>
    </vehicle>
    <vehicle id="24" depart="24.00">
        <route edges="13681299#4 13681299#5 13681299#6 -13681299#6 -13681299#5 -13681299#4 -13681299#3 -13681299#2 895034495 203381204#0 203381204#1 203381204#2 203381205#0 203381205#1 203381205#2 203381205#3 203381205#4 203381205#5 -589357400#4 -589357400#3 -589357400#2 -589357400#1 -589357400#0 -1291555117#1 -1291555117#0 209364523 209364533#2 209364531 -292121802#32 -292121802#31 -292121802#30 -292121802#29 -292121802#28 -292121802#27 -292121802#26 -292121802#25 -292121796#1 -292121797#0"/>
    </vehicle>
    <vehicle id="25" depart="25.00">
        <route edges="-292114863#0 292114863#0 292114863#1 292114860#2 -292114856#6 -292114856#5 -292114856#4 -292114856#3 -292114856#2 -292114856#1 -292114856#0 13681238#6 13681238#7 13681238#8 13681238#9 1223623584 1223623583#0 1223623581 1223623596#0 1223623585 1223623595#0 1223623592 1223623591#0 1223623591#1 895007899#0 895007899#1 895007899#2 895007899#3 895007899#4 895007899#5 895007899#6 895007899#7 895007899#8 895007899#9 895007899#10 895007899#11 895007899#12 895007899#13 895007899#14 895007899#15 895007899#16 895007899#17 895007899#18 895007899#19 895007899#20 895007899#21 895007899#22 895007899#23 895007899#24 895007899#25 895007899#26 895007899#27 895007899#28 895007899#29 895007899#30 895007899#31 895007899#32 895007899#33 895007899#34 895007899#35 895007899#36 895007899#37 895007899#38 895007899#39 895007899#40 895007899#41 895007899#42 886071146#1 886071146#2 13680806#0 13680806#1 13680806#2 13680806#4 13680806#6 13680806#7 13680806#9 13680806#10 13680806#11 13680806#12 13680806#14 13680806#15 -886071145#4 -886071145#3 -886071145#2 -886071145#1 13681639#1 13681639#2 13681639#3 13681639#4 13681639#5 13681639#6 13681639#7 13682237#1 13682237#2 13682237#3 13682237#6 13682237#7 13682237#8 13682237#9 13682237#10 13682429#17 13682429#18 13682429#19 13682757#0 13682757#1 13682757#2 13682757#3 1223122990#0 1223122989#1 1223122988#0 1223122988#1 13681607#0 13681607#1 13681607#2 13681607#3 13681607#4 13681607#5 13681607#6 13681607#7 13681607#8 -13682001#1"/>
    </vehicle>
    <vehicle id="26" depart="26.00">
        <route edges="-13682464#0 -13681030#2 -13681030#1 13681151#5 13681151#6 13681151#7 13681151#8 13681637#1 13681637#2 -180175600#11 -180175600#10 -180175600#8 -180175600#7 886084905#1 886084905#2 886084905#3 886084905#4 886084905#5 886084905#6 886084905#7 886084905#8 886084905#9 886084905#10 886084905#11 886084905#12"/>
    </vehicle>
    <vehicle id="27" depart="27.00">
        <route edges="13681424#0 -13681424#0 13682042#0 13682042#1 13682042#2 13682042#3 13682042#4 13682042#5 13682042#6 -13681803#24 -13681803#23 -13681803#22 -13681803#21 -13681803#20 -13681803#19 -13681803#18 -13681803#17 -13681803#16 -13681803#15 -13681803#14 -13681803#13 -13681803#12 -13681803#11 -13681803#10 -13681803#9 -13681803#7 -13681803#6 -13681803#5 -13681803#4 -13681803#3 -13681803#2 -13681803#1 -13681803#0 -1223122983#1 -1223122982#0 -1223122984#6 -1223122984#5 -1223122984#4 -1223122984#3 -1223122984#2 -1223122984#1 -1223122984#0 497742021#15 497742021#16 497742021#17 497742021#18 497742021#19 497742021#20 504090216 497742020 13681151#0 13681151#1 13681151#2 13681151#3 13681151#4 13681151#5 13681151#6 13681151#7 13681151#8 13681151#11 13681151#12 13681151#13 13681151#14 13681151#15 13681151#16 13681151#17 13681151#18 13681151#19 13681151#20 13681151#24 13681151#25 13681151#26 13681151#27 13681151#28 13681151#29 13681151#30 13681151#31 13681151#32 13681151#33 897289320#0 897289320#1 -71469344 -518342938#12 -518342938#11 -518342938#10 -518342938#9 -518342938#8 -518342938#6 -518342938#5 -518342938#3 -518342938#2 -518342938#1 -13680903#9 -13680903#7 -13680903#6 -13680903#5 -13680903#4 -13680903#1 -202055012#9 -202055012#8 -202055012#7 -202055012#6 -202055012#5 -202055012#4 -202055012#3 -202055012#2 -202055012#1 -13680244#1 202055014#1 202055014#2 -13680347#6 -13680347#5 -13680347#4 -13680347#2 -13680347#0 -13680375 13682173#0 13682173#1 13682173#2 13682173#4 13682173#6 13682173#7 13682010#0 13682010#1 13682010#2 13682010#3 13681127#0 13681127#1"/>
    </vehicle>
    <vehicle id="28" depart="28.00">
        <route edges="-13681402#7 13681099#0 13681099#1 -13682397#2 -13682397#1 -13682397#0 13680185#1 -13682494#3 -13682494#2 -13682494#1 -13682494#0 -13682492#6 -13682492#5 -13682492#4 -13682492#3 -13682492#2 1223123008#4 1223123008#5 1223123008#6 1223123008#7 1223123001 1223123000 1223122999 1223122998 1223122993#0 1223122993#1 1223122992#0 -1223122990#0 -13682757#3 -13682757#2 -13682757#1 -13682757#0 -13682429#19 -13682429#18 -13682429#17 -13682429#14 -13682429#13 -13682429#12 -13682429#11 13682429#11 13682429#12 13682429#13"/>
    </vehicle>
    <vehicle id="29" depart="29.00">
        <route edges="-13681344#0 -13681973 13681973 13681344#0 13681344#1 13681344#2 13681344#3 13681344#4 13681344#5 613382845#1 613382845#2 613382845#3 1223623586 1223623582#0 1223623581 1223623596#0 1223623585 1223623595#0 1223623592 1223623591#0 1223623591#1 895007899#0 895007899#1 895007899#2 895007899#3 895007899#4 895007899#5 895007899#6 895007899#7 895007899#8 895007899#9 895007899#10 895007899#11 895007899#12 895007899#13 895007899#14 895007899#15 895007899#16 895007899#17 895007899#18 895007899#19 895007899#20 895007899#21 895007899#22 895007899#23 895007899#24 895007899#25 895007899#26 895007899#27 895007899#28 895007899#29 895007899#30 895007899#31 895007899#32 895007899#33 895007899#34 895007899#35 895007899#36 895007899#37 895007899#38 895007899#39 895007899#40 895007899#41 895007899#42 895007899#43 895007899#45 895007899#46 895007899#47 895007899#49 895007899#50 895011686#0 895011686#1 895011686#2 895011686#3 895011686#4 895011686#5 895011686#6 895011686#7 895011686#8 895011686#9 895011686#10 895011686#12 895011686#13 895011686#14 895011686#16 895011686#17 895011686#18 895011686#19 895011686#20 895011686#21 895011686#22 895011686#23 895011686#24 895011686#25 895011686#26 895011686#27 895034486#0 895034486#1 895034486#2 895034486#3 895034486#4 895034486#5 895034486#6 895034486#7 895034486#8 895011683#0 895011683#1 895011683#2 895011683#3 895011683#4 895011683#5 895034495 203381204#0 203381204#1 203381204#2 203381205#0 203381205#1 203381205#2 203381205#3 203381205#4 203381205#5 -589357400#4 -589357400#3 -589357400#2 -589357400#1 -589357400#0 -1291555117#1 -1291555117#0 209364523 209364533#2 209364533#3 209364533#4 209364529 -13680849#27 -13680849#26 -13680849#25 -13680849#24 -13680849#22 -13680849#20 -13680849#19 -13680849#18 -13680849#17 -13680849#15 -13680849#14 -13680849#13 -13680849#12 -13680849#11 -13680849#10 -315559573#3 -315559573#2 -315559573#1 -315559573#0 -315559849#8"/>
    </vehicle>
    <vehicle id="30" depart="30.00">