<?xml version="1.0" encoding="UTF-8"?>

<!-- generated on 2025-04-09 20:34:32.990494 by randomTrips.py v1_22_0+0002-63e50f52594
<configuration>
    <net-file value="map.net.xml"/>
    <route-file value="routes.rou.xml"/>
    <end value="300.0"/>
    <period value="1.0"/>
</configuration>
-->

<routes xmlns:xsi="http://www.w3.org/2001/XMLSchema-instance" xsi:noNamespaceSchemaLocation="http://sumo.dlr.de/xsd/routes_file.xsd">
    <trip id="0" depart="0.00" from="13681344#5" to="-1291555013#1"/>
    <trip id="1" depart="1.00" from="-13682492#2" to="-13682173#10"/>
    <trip id="2" depart="2.00" from="13682432#2" to="13681815#1"/>
    <trip id="3" depart="3.00" from="353261802" to="-13680550#2"/>
    <trip id="4" depart="4.00" from="-589357403#4" to="-1298127590#0"/>
    <trip id="5" depart="5.00" from="-13681964#11" to="13678132#3"/>
    <trip id="6" depart="6.00" from="-1291555117#3" to="-13681821#4"/>
    <trip id="7" depart="7.00" from="13681433#4" to="13680423#29"/>
    <trip id="8" depart="8.00" from="-13681973" to="13680910"/>
    <trip id="9" depart="9.00" from="192952205#5" to="-119655169#4"/>
    <trip id="10" depart="10.00" from="191800399#0" to="13682087#4"/>
    <trip id="11" depart="11.00" from="-202055016#5" to="-13681353"/>
    <trip id="12" depart="12.00" from="895007899#42" to="-223421969#2"/>
    <trip id="13" depart="13.00" from="-13680556" to="-13680636#4"/>
    <trip id="14" depart="14.00" from="292071086#4" to="13681097#5"/>
    <trip id="15" depart="15.00" from="191800400#5" to="13682429#18"/>
    <trip id="16" depart="16.00" from="13679417#2" to="895702791#0"/>
    <trip id="17" depart="17.00" from="-292119505" to="13680500#3"/>
    <trip id="18" depart="18.00" from="203381204#1" to="13681232#7"/>
    <trip id="19" depart="19.00" from="292119445#1" to="13680783#0"/>
    <trip id="20" depart="20.00" from="13682087#3" to="-13678271#1"/>
    <trip id="21" depart="21.00" from="-13682061#1" to="-13683014#6"/>
    <trip id="22" depart="22.00" from="-13680423#15" to="-13682257#1"/>
    <trip id="23" depart="23.00" from="-13680636#1" to="-13682885#1"/>
    <trip id="24" depart="24.00" from="13681299#4" to="-292121797#0"/>
    <trip id="25" depart="25.00" from="-292114863#0" to="-13682001#1"/>
    <trip id="26" depart="26.00" from="-13682464#0" to="886084905#12"/>
    <trip id="27" depart="27.00" from="13681424#0" to="13681127#1"/>
    <trip id="28" depart="28.00" from="-13681402#7" to="13682429#13"/>
    <trip id="29" depart="29.00" from="-13681344#0" to="-315559849#8"/>
    <trip id="30" depart="30.00" from="897245048#0" to="13681413"/>
    <trip id="31" depart="31.00" from="13680423#13" to="13681915#3"/>
    <trip id="32" depart="32.00" from="292071064#0" to="13683097#3"/>
    <trip id="33" depart="33.00" from="-13682085" to="-1309940951#1"/>
    <trip id="34" depart="34.00" from="-180175600#11" to="-13682610"/>
    <trip id="35" depart="35.00" from="-13681863#3" to="886578338#1"/>
    <trip id="36" depart="36.00" from="292131204#1" to="-191800400#4"/>
    <trip id="37" depart="37.00" from="13681524#11" to="-497742021#18"/>
    <trip id="38" depart="38.00" from="589357403#6" to="1223122984#2"/>
    <trip id="39" depart="39.00" from="-13682441#1" to="-13682429#17"/>
    <trip id="40" depart="40.00" from="13680435#10" to="-13682494#4"/>
    <trip id="41" depart="41.00" from="13680675#1" to="391394237"/>
    <trip id="42" depart="42.00" from="-315560180#10" to="-13682104#4"/>
    <trip id="43" depart="43.00" from="990662005" to="13678345#3"/>
    <trip id="44" depart="44.00" from="-13680542#1" to="-13678345#3"/>
    <trip id="45" depart="45.00" from="-13680698#1" to="13681300"/>
    <trip id="46" depart="46.00" from="180175601#1" to="-886580089#3"/>
    <trip id="47" depart="47.00" from="-13679911#1" to="-315560019#2"/>
    <trip id="48" depart="48.00" from="990656282#2" to="13680165#4"/>
    <trip id="49" depart="49.00" from="895034486#5" to="292119473#11"/>
    <trip id="50" depart="50.00" from="-1223122926#3" to="13682340#3"/>
    <trip id="51" depart="51.00" from="13681803#19" to="13680342#8"/>
    <trip id="52" depart="52.00" from="-13682448#5" to="13681424#4"/>
    <trip id="53" depart="53.00" from="-13680742" to="1032377601#0"/>
    <trip id="54" depart="54.00" from="1158072208#1" to="895007899#21"/>
    <trip id="55" depart="55.00" from="292131203#0" to="-13682507#1"/>
    <trip id="56" depart="56.00" from="129441444#2" to="-13681576#1"/>
    <trip id="57" depart="57.00" from="589357400#3" to="292121802#9"/>
    <trip id="58" depart="58.00" from="-13682967#1" to="13681406#1"/>
    <trip id="59" depart="59.00" from="13681032#1" to="-13681302#1"/>
    <trip id="60" depart="60.00" from="13682790" to="13680381#2"/>
    <trip id="61" depart="61.00" from="13683081" to="13680230#0"/>
    <trip id="62" depart="62.00" from="-1081626714" to="-202055016#2"/>
    <trip id="63" depart="63.00" from="-1223123002#0" to="76608612#1"/>
    <trip id="64" depart="64.00" from="292134212" to="207883180"/>
    <trip id="65" depart="65.00" from="-13683141#1" to="-13679537#1"/>
    <trip id="66" depart="66.00" from="292134209#0" to="886580089#1"/>
    <trip id="67" depart="67.00" from="-13680435#5" to="129441444#38"/>
    <trip id="68" depart="68.00" from="-13680247#3" to="13682807#0"/>
    <trip id="69" depart="69.00" from="13682885#1" to="-13681071#5"/>
    <trip id="70" depart="70.00" from="1223122978" to="13680436#4"/>
    <trip id="71" depart="71.00" from="-13682441#2" to="292123187#1"/>
    <trip id="72" depart="72.00" from="-589357405#3" to="-13682018#0"/>
    <trip id="73" depart="73.00" from="13679538#4" to="13682429#19"/>
    <trip id="74" depart="74.00" from="-13681675#2" to="-191800377#0"/>
    <trip id="75" depart="75.00" from="977370176#1" to="13681524#23"/>
    <trip id="76" depart="76.00" from="-886579419#4" to="13679091#0"/>
    <trip id="77" depart="77.00" from="-13680849#24" to="-13682183#2"/>
    <trip id="78" depart="78.00" from="-202055014#32" to="13680908#0"/>
    <trip id="79" depart="79.00" from="-13682089#1" to="-13682117#3"/>
    <trip id="80" depart="80.00" from="-13680334#1" to="13681353"/>
    <trip id="81" depart="81.00" from="-13682083#5" to="518342938#2"/>
    <trip id="82" depart="82.00" from="292114878#1" to="-13680342#10"/>
    <trip id="83" depart="83.00" from="-13682197#2" to="13681639#7"/>
    <trip id="84" depart="84.00" from="-13681889" to="-13681097#9"/>
    <trip id="85" depart="85.00" from="886084899#1" to="13680663#9"/>
    <trip id="86" depart="86.00" from="1223122966" to="13683176#11"/>
    <trip id="87" depart="87.00" from="192952198#1" to="-13681687#0"/>
    <trip id="88" depart="88.00" from="-13680570#7" to="-923561808#3"/>
    <trip id="89" depart="89.00" from="-589357405#5" to="1223123013"/>
    <trip id="90" depart="90.00" from="13682386#13" to="13681803#13"/>
    <trip id="91" depart="91.00" from="89626857#2" to="-13680649#4"/>
    <trip id="92" depart="92.00" from="-315560208#1" to="-24850085#5"/>
    <trip id="93" depart="93.00" from="292119445#1" to="-13682432#0"/>
    <trip id="94" depart="94.00" from="-13681576#16" to="1223122926#2"/>
    <trip id="95" depart="95.00" from="-589357403#3" to="-13682885#3"/>
    <trip id="96" depart="96.00" from="-13682319#0" to="74543355#4"/>
    <trip id="97" depart="97.00" from="-895706725" to="292119473#5"/>
    <trip id="98" depart="98.00" from="13680339#1" to="-13678593"/>
    <trip id="99" depart="99.00" from="991065298#2" to="223421969#9"/>
    <trip id="100" depart="100.00" from="895029167" to="74543395#1"/>
    <trip id="101" depart="101.00" from="292071089#0" to="-13681448#1"/>
    <trip id="102" depart="102.00" from="1223623556" to="-13682042#4"/>
    <trip id="103" depart="103.00" from="-315560188#0" to="-13679538#3"/>
    <trip id="104" depart="104.00" from="-292119520" to="89626865#0"/>
    <trip id="105" depart="105.00" from="-13682441#2" to="13683172"/>
    <trip id="106" depart="106.00" from="1159061926#11" to="-886582017#1"/>
    <trip id="107" depart="107.00" from="895007899#43" to="977370176#1"/>
    <trip id="108" depart="108.00" from="13680414#1" to="13682313#0"/>
    <trip id="109" depart="109.00" from="-13681250#1" to="-13683176#12"/>
    <trip id="110" depart="110.00" from="895020092" to="13680806#0"/>
    <trip id="111" depart="111.00" from="13679911#0" to="13682519#4"/>
    <trip id="112" depart="112.00" from="-13679336" to="13680849#2"/>
    <trip id="113" depart="113.00" from="129441444#31" to="292114858#0"/>
    <trip id="114" depart="114.00" from="-13681282#6" to="895011683#5"/>
    <trip id="115" depart="115.00" from="-13680423#17" to="-13681607#4"/>
    <trip id="116" depart="116.00" from="13680849#17" to="13681803#23"/>
    <trip id="117" depart="117.00" from="-13682173#2" to="-13680947#0"/>
    <trip id="118" depart="118.00" from="315560180#8" to="-13682429#12"/>
    <trip id="119" depart="119.00" from="13680849#13" to="13681238#5"/>
    <trip id="120" depart="120.00" from="-557585569#2" to="13680849#17"/>
    <trip id="121" depart="121.00" from="13678171#4" to="886071146#1"/>
    <trip id="122" depart="122.00" from="-13681803#1" to="13682261#6"/>
    <trip id="123" depart="123.00" from="-13682220" to="-497742021#19"/>
    <trip id="124" depart="124.00" from="13681607#1" to="-180175600#11"/>
    <trip id="125" depart="125.00" from="-180175600#7" to="13682618#6"/>
    <trip id="126" depart="126.00" from="-13680339#2" to="1223122983#1"/>
    <trip id="127" depart="127.00" from="991065292#0" to="990656282#0"/>
    <trip id="128" depart="128.00" from="-13680342#1" to="-13682042#1"/>
    <trip id="129" depart="129.00" from="-13682441#2" to="886066110#1"/>
    <trip id="130" depart="130.00" from="292188925" to="292188917#2"/>
    <trip id="131" depart="131.00" from="-292114861#0" to="-13681394#0"/>
    <trip id="132" depart="132.00" from="207762604#0" to="13682173#2"/>
    <trip id="133" depart="133.00" from="13681075#1" to="89626880#2"/>
    <trip id="134" depart="134.00" from="13681476#5" to="-1199248045#1"/>
    <trip id="135" depart="135.00" from="202055014#31" to="-173685678#1"/>
    <trip id="136" depart="136.00" from="13681524#60" to="886092096"/>
    <trip id="137" depart="137.00" from="-13681032#2" to="-13680849#4"/>
    <trip id="138" depart="138.00" from="-13680663#7" to="13680524#2"/>
    <trip id="139" depart="139.00" from="-13682478#3" to="13681098#2"/>
    <trip id="140" depart="140.00" from="13682237#37" to="-13681896#4"/>
    <trip id="141" depart="141.00" from="13681297" to="-13682509"/>
    <trip id="142" depart="142.00" from="1223623576" to="518342938#12"/>
    <trip id="143" depart="143.00" from="292071075#2" to="-13680570#6"/>
    <trip id="144" depart="144.00" from="-589357405#5" to="-13682807#1"/>
    <trip id="145" depart="145.00" from="-1159061926#18" to="13682975#9"/>
    <trip id="146" depart="146.00" from="13681310#0" to="-13682492#6"/>
    <trip id="147" depart="147.00" from="13682464#0" to="13680500#1"/>
    <trip id="148" depart="148.00" from="-74543358#4" to="-1223122922"/>
    <trip id="149" depart="149.00" from="-13680347#6" to="315559573#3"/>
    <trip id="150" depart="150.00" from="497742021#20" to="13680423#4"/>
    <trip id="151" depart="151.00" from="207883187#2" to="13680849#1"/>
    <trip id="152" depart="152.00" from="-13681151#3" to="-13681069"/>
    <trip id="153" depart="153.00" from="-13683150#3" to="483082949#5"/>
    <trip id="154" depart="154.00" from="184025991#3" to="292119473#11"/>
    <trip id="155" depart="155.00" from="483082949#0" to="-13682006#2"/>
    <trip id="156" depart="156.00" from="-13682315#1" to="-13680675#0"/>
    <trip id="157" depart="157.00" from="13683131#12" to="315559849#3"/>
    <trip id="158" depart="158.00" from="-378569209#2" to="13681248"/>
    <trip id="159" depart="159.00" from="-13681249" to="76608634#0"/>
    <trip id="160" depart="160.00" from="292119520" to="895706721#0"/>
    <trip id="161" depart="161.00" from="202055011#3" to="299709774#2"/>
    <trip id="162" depart="162.00" from="-1291555013#1" to="13682464#1"/>
    <trip id="163" depart="163.00" from="-202055012#2" to="809428282#1"/>
    <trip id="164" depart="164.00" from="191796249#3" to="292121795#4"/>
    <trip id="165" depart="165.00" from="202055011#3" to="-13682579#5"/>
    <trip id="166" depart="166.00" from="13683176#10" to="-13680783#5"/>
    <trip id="167" depart="167.00" from="292121802#6" to="292114879#2"/>
    <trip id="168" depart="168.00" from="-13682010#1" to="202055016#2"/>
    <trip id="169" depart="169.00" from="119655164" to="-191741377#1"/>
    <trip id="170" depart="170.00" from="180175684#8" to="-13682237#14"/>
    <trip id="171" depart="171.00" from="-1253790646#0" to="-13681759"/>
    <trip id="172" depart="172.00" from="-191800389" to="292121795#5"/>
    <trip id="173" depart="173.00" from="895011686#27" to="-13682885#7"/>
    <trip id="174" depart="174.00" from="13681376#5" to="-518342943#3"/>
    <trip id="175" depart="175.00" from="89626851#10" to="13680342#2"/>
    <trip id="176" depart="176.00" from="886092096" to="-13680849#4"/>
    <trip id="177" depart="177.00" from="895034486#1" to="-13681576#0"/>
    <trip id="178" depart="178.00" from="895011684#20" to="-13682522"/>
    <trip id="179" depart="179.00" from="-13680675#3" to="1029304920"/>
    <trip id="180" depart="180.00" from="13682386#10" to="-191800399#1"/>
    <trip id="181" depart="181.00" from="13680997#1" to="13678506#2"/>
    <trip id="182" depart="182.00" from="-292121802#31" to="13680780#1"/>
    <trip id="183" depart="183.00" from="-13682386#15" to="13682237#17"/>
    <trip id="184" depart="184.00" from="-1158072209#0" to="74543364#5"/>
    <trip id="185" depart="185.00" from="13679538#0" to="13682319#2"/>
    <trip id="186" depart="186.00" from="13682464#4" to="13681687#5"/>
    <trip id="187" depart="187.00" from="-292071092#1" to="-13680339#2"/>
    <trip id="188" depart="188.00" from="13681524#7" to="-202060852#2"/>
    <trip id="189" depart="189.00" from="-13683197" to="292071091#2"/>
    <trip id="190" depart="190.00" from="13682259#2" to="-180175600#4"/>
    <trip id="191" depart="191.00" from="-13683154#0" to="-613382845#0"/>
    <trip id="192" depart="192.00" from="-315560195#1" to="-13683170#0"/>
    <trip id="193" depart="193.00" from="-13680947#2" to="-886580078#0"/>
    <trip id="194" depart="194.00" from="886096995#5" to="13681821#0"/>
    <trip id="195" depart="195.00" from="497742021#15" to="13681190#4"/>
    <trip id="196" depart="196.00" from="-13682975#7" to="13680435#16"/>
    <trip id="197" depart="197.00" from="-1032377601#2" to="-13682986#0"/>
    <trip id="198" depart="198.00" from="-810283017#1" to="13680806#12"/>
    <trip id="199" depart="199.00" from="13681511#2" to="1223123007"/>
    <trip id="200" depart="200.00" from="-894678059#2" to="-13682042#4"/>
    <trip id="201" depart="201.00" from="1223122969#1" to="486471040#1"/>
    <trip id="202" depart="202.00" from="184025991#3" to="-13681524#16"/>
    <trip id="203" depart="203.00" from="-13680435#15" to="13678922"/>
    <trip id="204" depart="204.00" from="13681282#6" to="-209364536#0"/>
    <trip id="205" depart="205.00" from="202055015#0" to="13682603#2"/>
    <trip id="206" depart="206.00" from="13681607#7" to="-13682183#2"/>
    <trip id="207" depart="207.00" from="-13681637#4" to="-1291318428"/>
    <trip id="208" depart="208.00" from="-13682245" to="1223623594#7"/>
    <trip id="209" depart="209.00" from="292071093#0" to="-13680364"/>
    <trip id="210" depart="210.00" from="-497742021#8" to="13681344#1"/>
    <trip id="211" depart="211.00" from="-13681576#8" to="13682083#0"/>
    <trip id="212" depart="212.00" from="1253791876" to="-13682386#7"/>
    <trip id="213" depart="213.00" from="13681524#16" to="-119655167#1"/>
    <trip id="214" depart="214.00" from="13682507#1" to="13682975#3"/>
    <trip id="215" depart="215.00" from="-13680663#4" to="-89626851#1"/>
    <trip id="216" depart="216.00" from="-13681444#3" to="895007899#43"/>
    <trip id="217" depart="217.00" from="13678065#10" to="-13678571#1"/>
    <trip id="218" depart="218.00" from="-13682313#1" to="292071093#0"/>
    <trip id="219" depart="219.00" from="1159061926#20" to="191800373#4"/>
    <trip id="220" depart="220.00" from="13681576#24" to="89626889"/>
    <trip id="221" depart="221.00" from="13680849#19" to="894678058#0"/>
    <trip id="222" depart="222.00" from="315560191#1" to="13681151#3"/>
    <trip id="223" depart="223.00" from="13682257#2" to="13678118#2"/>
    <trip id="224" depart="224.00" from="203381205#5" to="13680435#15"/>
    <trip id="225" depart="225.00" from="378570153#4" to="13682482#1"/>
    <trip id="226" depart="226.00" from="1223122975" to="-13682480#2"/>
    <trip id="227" depart="227.00" from="-13682305#0" to="13681402#3"/>
    <trip id="228" depart="228.00" from="13682885#1" to="13679496"/>
    <trip id="229" depart="229.00" from="13681231" to="-13682788#0"/>
    <trip id="230" depart="230.00" from="-13680413#0" to="-13682975#4"/>
    <trip id="231" depart="231.00" from="-13682478#0" to="-202055014#15"/>
    <trip id="232" depart="232.00" from="13679723#0" to="-13681151#19"/>
    <trip id="233" depart="233.00" from="-13682105#1" to="13682044"/>
    <trip id="234" depart="234.00" from="13682117#1" to="-13680165#5"/>
    <trip id="235" depart="235.00" from="-378570153#2" to="13680423#14"/>
    <trip id="236" depart="236.00" from="-518342938#3" to="-13681964#10"/>
    <trip id="237" depart="237.00" from="-589357400#1" to="518342938#1"/>
    <trip id="238" depart="238.00" from="13680663#9" to="13682051#7"/>
    <trip id="239" depart="239.00" from="292114866#0" to="13682890#6"/>
    <trip id="240" depart="240.00" from="-292121795#5" to="-119655169#0"/>
    <trip id="241" depart="241.00" from="-223421969#10" to="13682638#7"/>
    <trip id="242" depart="242.00" from="292114856#1" to="895007899#2"/>
    <trip id="243" depart="243.00" from="-557585569#1" to="13682519#1"/>
    <trip id="244" depart="244.00" from="13680230#0" to="13681097#3"/>
    <trip id="245" depart="245.00" from="-13681973" to="-13682104#4"/>
    <trip id="246" depart="246.00" from="-886309723" to="-1297818602#0"/>
    <trip id="247" depart="247.00" from="-202055014#20" to="13681863#2"/>
    <trip id="248" depart="248.00" from="-37138317#1" to="-13681440"/>
    <trip id="249" depart="249.00" from="1223122927#2" to="-13681071#0"/>
    <trip id="250" depart="250.00" from="13681151#28" to="-1291555117#4"/>
    <trip id="251" depart="251.00" from="-308276204#1" to="13680633#3"/>
    <trip id="252" depart="252.00" from="-1291555117#6" to="13681441#1"/>
    <trip id="253" depart="253.00" from="-13681071#4" to="1223122993#0"/>
    <trip id="254" depart="254.00" from="-13678506#3" to="-315559849#6"/>
    <trip id="255" depart="255.00" from="-13681872#2" to="-202055018#22"/>
    <trip id="256" depart="256.00" from="13682757#2" to="-315559849#6"/>
    <trip id="257" depart="257.00" from="13682519#2" to="207883187#0"/>
    <trip id="258" depart="258.00" from="-13682346#1" to="-13680435#4"/>
    <trip id="259" depart="259.00" from="-1223123002#0" to="13680381#2"/>
    <trip id="260" depart="260.00" from="992062981" to="-292083323"/>
    <trip id="261" depart="261.00" from="13681433#5" to="13683150#5"/>
    <trip id="262" depart="262.00" from="13681452#0" to="13682644#3"/>
    <trip id="263" depart="263.00" from="894678058#1" to="-13681851#2"/>
    <trip id="264" depart="264.00" from="-1223123007" to="-13681300"/>
    <trip id="265" depart="265.00" from="-13680921#1" to="13681675#1"/>
    <trip id="266" depart="266.00" from="13680436#3" to="-13682087#2"/>
    <trip id="267" depart="267.00" from="13682042#0" to="13682929#3"/>
    <trip id="268" depart="268.00" from="-13681394#1" to="13681103#0"/>
    <trip id="269" depart="269.00" from="13682482#0" to="-13680849#24"/>
    <trip id="270" depart="270.00" from="202055016#4" to="895011686#10"/>
    <trip id="271" depart="271.00" from="-13680675#1" to="-1291555013#5"/>
    <trip id="272" depart="272.00" from="-13683176#12" to="13681821#0"/>
    <trip id="273" depart="273.00" from="895007899#5" to="-497742021#5"/>
    <trip id="274" depart="274.00" from="13682237#2" to="-13680423#12"/>
    <trip id="275" depart="275.00" from="13681915#0" to="13681299#8"/>
    <trip id="276" depart="276.00" from="-13680636#6" to="13682989#4"/>
    <trip id="277" depart="277.00" from="292071098#0" to="13681071#6"/>
    <trip id="278" depart="278.00" from="-13680849#24" to="89626855"/>
    <trip id="279" depart="279.00" from="13683135#3" to="-292071091#1"/>
    <trip id="280" depart="280.00" from="-76608632#2" to="-292121802#9"/>
    <trip id="281" depart="281.00" from="129441570#2" to="-292071064#2"/>
    <trip id="282" depart="282.00" from="292071092#0" to="202055286#6"/>
    <trip id="283" depart="283.00" from="-13680663#20" to="895011683#5"/>
    <trip id="284" depart="284.00" from="13681299#3" to="203386366"/>
    <trip id="285" depart="285.00" from="13682122#3" to="1127409890"/>
    <trip id="286" depart="286.00" from="13682429#13" to="895011686#16"/>
    <trip id="287" depart="287.00" from="-13682470" to="202055011#2"/>
    <trip id="288" depart="288.00" from="13679537#0" to="129441444#24"/>
    <trip id="289" depart="289.00" from="-886097033#1" to="13682429#9"/>
    <trip id="290" depart="290.00" from="-13682466#3" to="292114856#1"/>
    <trip id="291" depart="291.00" from="203386360" to="-13680542#2"/>
    <trip id="292" depart="292.00" from="299709771" to="-13682386#5"/>
    <trip id="293" depart="293.00" from="1223122921" to="13681151#14"/>
    <trip id="294" depart="294.00" from="-292119520" to="-129441570#7"/>
    <trip id="295" depart="295.00" from="292071100" to="-13681576#28"/>
    <trip id="296" depart="296.00" from="-13681872#5" to="191786459#5"/>
    <trip id="297" depart="297.00" from="-202055016#5" to="292208483#2"/>
    <trip id="298" depart="298.00" from="13682051#1" to="-13682805#1"/>
    <trip id="299" depart="299.00" from="-1223122923#2" to="886581438#1"/>
</routes>
