<?xml version="1.0" encoding="UTF-8"?>

<!-- generated on 2025-04-22 00:35:52.062424 by randomTrips.py v1_22_0+0002-63e50f52594
<configuration>
    <net-file value="map.net.xml"/>
    <route-file value="flow2.rou.xml"/>
    <end value="10.0"/>
    <period value="0.006"/>
</configuration>
-->

<routes xmlns:xsi="http://www.w3.org/2001/XMLSchema-instance" xsi:noNamespaceSchemaLocation="http://sumo.dlr.de/xsd/routes_file.xsd">
    <trip id="0" depart="0.00" from="13681344#5" to="-1291555013#1"/>
    <trip id="1" depart="0.01" from="-13682492#2" to="-13682173#10"/>
    <trip id="2" depart="0.01" from="13682432#2" to="13681815#1"/>
    <trip id="3" depart="0.02" from="353261802" to="-13680550#2"/>
    <trip id="4" depart="0.02" from="-589357403#4" to="-1298127590#0"/>
    <trip id="5" depart="0.03" from="-13681964#11" to="13678132#3"/>
    <trip id="6" depart="0.04" from="-1291555117#3" to="-13681821#4"/>
    <trip id="7" depart="0.04" from="13681433#4" to="13680423#29"/>
    <trip id="8" depart="0.05" from="-13681973" to="13680910"/>
    <trip id="9" depart="0.05" from="192952205#5" to="-119655169#4"/>
    <trip id="10" depart="0.06" from="191800399#0" to="13682087#4"/>
    <trip id="11" depart="0.07" from="-202055016#5" to="-13681353"/>
    <trip id="12" depart="0.07" from="895007899#42" to="-223421969#2"/>
    <trip id="13" depart="0.08" from="-13680556" to="-13680636#4"/>
    <trip id="14" depart="0.08" from="292071086#4" to="13681097#5"/>
    <trip id="15" depart="0.09" from="191800400#5" to="13682429#18"/>
    <trip id="16" depart="0.10" from="13679417#2" to="895702791#0"/>
    <trip id="17" depart="0.10" from="-292119505" to="13680500#3"/>
    <trip id="18" depart="0.11" from="203381204#1" to="13681232#7"/>
    <trip id="19" depart="0.11" from="292119445#1" to="13680783#0"/>
    <trip id="20" depart="0.12" from="13682087#3" to="-13678271#1"/>
    <trip id="21" depart="0.13" from="-13682061#1" to="-13683014#6"/>
    <trip id="22" depart="0.13" from="-13680423#15" to="-13682257#1"/>
    <trip id="23" depart="0.14" from="-13680636#1" to="-13682885#1"/>
    <trip id="24" depart="0.14" from="13681299#4" to="-292121797#0"/>
    <trip id="25" depart="0.15" from="-292114863#0" to="-13682001#1"/>
    <trip id="26" depart="0.16" from="-13682464#0" to="886084905#12"/>
    <trip id="27" depart="0.16" from="13681424#0" to="13681127#1"/>
    <trip id="28" depart="0.17" from="-13681402#7" to="13682429#13"/>
    <trip id="29" depart="0.17" from="-13681344#0" to="-315559849#8"/>
    <trip id="30" depart="0.18" from="897245048#0" to="13681413"/>
    <trip id="31" depart="0.19" from="13680423#13" to="13681915#3"/>
    <trip id="32" depart="0.19" from="292071064#0" to="13683097#3"/>
    <trip id="33" depart="0.20" from="-13682085" to="-1309940951#1"/>
    <trip id="34" depart="0.20" from="-180175600#11" to="-13682610"/>
    <trip id="35" depart="0.21" from="-13681863#3" to="886578338#1"/>
    <trip id="36" depart="0.22" from="292131204#1" to="-191800400#4"/>
    <trip id="37" depart="0.22" from="13681524#11" to="-497742021#18"/>
    <trip id="38" depart="0.23" from="589357403#6" to="1223122984#2"/>
    <trip id="39" depart="0.23" from="-13682441#1" to="-13682429#17"/>
    <trip id="40" depart="0.24" from="13680435#10" to="-13682494#4"/>
    <trip id="41" depart="0.25" from="13680675#1" to="391394237"/>
    <trip id="42" depart="0.25" from="-315560180#10" to="-13682104#4"/>
    <trip id="43" depart="0.26" from="990662005" to="13678345#3"/>
    <trip id="44" depart="0.26" from="-13680542#1" to="-13678345#3"/>
    <trip id="45" depart="0.27" from="-13680698#1" to="13681300"/>
    <trip id="46" depart="0.28" from="180175601#1" to="-886580089#3"/>
    <trip id="47" depart="0.28" from="-13679911#1" to="-315560019#2"/>
    <trip id="48" depart="0.29" from="990656282#2" to="13680165#4"/>
    <trip id="49" depart="0.29" from="895034486#5" to="292119473#11"/>
    <trip id="50" depart="0.30" from="-1223122926#3" to="13682340#3"/>
    <trip id="51" depart="0.31" from="13681803#19" to="13680342#8"/>
    <trip id="52" depart="0.31" from="-13682448#5" to="13681424#4"/>
    <trip id="53" depart="0.32" from="-13680742" to="1032377601#0"/>
    <trip id="54" depart="0.32" from="1158072208#1" to="895007899#21"/>
    <trip id="55" depart="0.33" from="292131203#0" to="-13682507#1"/>
    <trip id="56" depart="0.34" from="129441444#2" to="-13681576#1"/>
    <trip id="57" depart="0.34" from="589357400#3" to="292121802#9"/>
    <trip id="58" depart="0.35" from="-13682967#1" to="13681406#1"/>
    <trip id="59" depart="0.35" from="13681032#1" to="-13681302#1"/>
    <trip id="60" depart="0.36" from="13682790" to="13680381#2"/>
    <trip id="61" depart="0.37" from="13683081" to="13680230#0"/>
    <trip id="62" depart="0.37" from="-1081626714" to="-202055016#2"/>
    <trip id="63" depart="0.38" from="-1223123002#0" to="76608612#1"/>
    <trip id="64" depart="0.38" from="292134212" to="207883180"/>
    <trip id="65" depart="0.39" from="-13683141#1" to="-13679537#1"/>
    <trip id="66" depart="0.40" from="292134209#0" to="886580089#1"/>
    <trip id="67" depart="0.40" from="-13680435#5" to="129441444#38"/>
    <trip id="68" depart="0.41" from="-13680247#3" to="13682807#0"/>
    <trip id="69" depart="0.41" from="13682885#1" to="-13681071#5"/>
    <trip id="70" depart="0.42" from="1223122978" to="13680436#4"/>
    <trip id="71" depart="0.43" from="-13682441#2" to="292123187#1"/>
    <trip id="72" depart="0.43" from="-589357405#3" to="-13682018#0"/>
    <trip id="73" depart="0.44" from="13679538#4" to="13682429#19"/>
    <trip id="74" depart="0.44" from="-13681675#2" to="-191800377#0"/>
    <trip id="75" depart="0.45" from="977370176#1" to="13681524#23"/>
    <trip id="76" depart="0.46" from="-886579419#4" to="13679091#0"/>
    <trip id="77" depart="0.46" from="-13680849#24" to="-13682183#2"/>
    <trip id="78" depart="0.47" from="-202055014#32" to="13680908#0"/>
    <trip id="79" depart="0.47" from="-13682089#1" to="-13682117#3"/>
    <trip id="80" depart="0.48" from="-13680334#1" to="13681353"/>
    <trip id="81" depart="0.49" from="-13682083#5" to="518342938#2"/>
    <trip id="82" depart="0.49" from="292114878#1" to="-13680342#10"/>
    <trip id="83" depart="0.50" from="-13682197#2" to="13681639#7"/>
    <trip id="84" depart="0.50" from="-13681889" to="-13681097#9"/>
    <trip id="85" depart="0.51" from="886084899#1" to="13680663#9"/>
    <trip id="86" depart="0.52" from="1223122966" to="13683176#11"/>
    <trip id="87" depart="0.52" from="192952198#1" to="-13681687#0"/>
    <trip id="88" depart="0.53" from="-13680570#7" to="-923561808#3"/>
    <trip id="89" depart="0.53" from="-589357405#5" to="1223123013"/>
    <trip id="90" depart="0.54" from="13682386#13" to="13681803#13"/>
    <trip id="91" depart="0.55" from="89626857#2" to="-13680649#4"/>
    <trip id="92" depart="0.55" from="-315560208#1" to="-24850085#5"/>
    <trip id="93" depart="0.56" from="292119445#1" to="-13682432#0"/>
    <trip id="94" depart="0.56" from="-13681576#16" to="1223122926#2"/>
    <trip id="95" depart="0.57" from="-589357403#3" to="-13682885#3"/>
    <trip id="96" depart="0.58" from="-13682319#0" to="74543355#4"/>
    <trip id="97" depart="0.58" from="-895706725" to="292119473#5"/>
    <trip id="98" depart="0.59" from="13680339#1" to="-13678593"/>
    <trip id="99" depart="0.59" from="991065298#2" to="223421969#9"/>
    <trip id="100" depart="0.60" from="895029167" to="74543395#1"/>
    <trip id="101" depart="0.61" from="292071089#0" to="-13681448#1"/>
    <trip id="102" depart="0.61" from="1223623556" to="-13682042#4"/>
    <trip id="103" depart="0.62" from="-315560188#0" to="-13679538#3"/>
    <trip id="104" depart="0.62" from="-292119520" to="89626865#0"/>
    <trip id="105" depart="0.63" from="-13682441#2" to="13683172"/>
    <trip id="106" depart="0.64" from="1159061926#11" to="-886582017#1"/>
    <trip id="107" depart="0.64" from="895007899#43" to="977370176#1"/>
    <trip id="108" depart="0.65" from="13680414#1" to="13682313#0"/>
    <trip id="109" depart="0.65" from="-13681250#1" to="-13683176#12"/>
    <trip id="110" depart="0.66" from="895020092" to="13680806#0"/>
    <trip id="111" depart="0.67" from="13679911#0" to="13682519#4"/>
    <trip id="112" depart="0.67" from="-13679336" to="13680849#2"/>
    <trip id="113" depart="0.68" from="129441444#31" to="292114858#0"/>
    <trip id="114" depart="0.68" from="-13681282#6" to="895011683#5"/>
    <trip id="115" depart="0.69" from="-13680423#17" to="-13681607#4"/>
    <trip id="116" depart="0.70" from="13680849#17" to="13681803#23"/>
    <trip id="117" depart="0.70" from="-13682173#2" to="-13680947#0"/>
    <trip id="118" depart="0.71" from="315560180#8" to="-13682429#12"/>
    <trip id="119" depart="0.71" from="13680849#13" to="13681238#5"/>
    <trip id="120" depart="0.72" from="-557585569#2" to="13680849#17"/>
    <trip id="121" depart="0.73" from="13678171#4" to="886071146#1"/>
    <trip id="122" depart="0.73" from="-13681803#1" to="13682261#6"/>
    <trip id="123" depart="0.74" from="-13682220" to="-497742021#19"/>
    <trip id="124" depart="0.74" from="13681607#1" to="-180175600#11"/>
    <trip id="125" depart="0.75" from="-180175600#7" to="13682618#6"/>
    <trip id="126" depart="0.76" from="-13680339#2" to="1223122983#1"/>
    <trip id="127" depart="0.76" from="991065292#0" to="990656282#0"/>
    <trip id="128" depart="0.77" from="-13680342#1" to="-13682042#1"/>
    <trip id="129" depart="0.77" from="-13682441#2" to="886066110#1"/>
    <trip id="130" depart="0.78" from="292188925" to="292188917#2"/>
    <trip id="131" depart="0.79" from="-292114861#0" to="-13681394#0"/>
    <trip id="132" depart="0.79" from="207762604#0" to="13682173#2"/>
    <trip id="133" depart="0.80" from="13681075#1" to="89626880#2"/>
    <trip id="134" depart="0.80" from="13681476#5" to="-1199248045#1"/>
    <trip id="135" depart="0.81" from="202055014#31" to="-173685678#1"/>
    <trip id="136" depart="0.82" from="13681524#60" to="886092096"/>
    <trip id="137" depart="0.82" from="-13681032#2" to="-13680849#4"/>
    <trip id="138" depart="0.83" from="-13680663#7" to="13680524#2"/>
    <trip id="139" depart="0.83" from="-13682478#3" to="13681098#2"/>
    <trip id="140" depart="0.84" from="13682237#37" to="-13681896#4"/>
    <trip id="141" depart="0.85" from="13681297" to="-13682509"/>
    <trip id="142" depart="0.85" from="1223623576" to="518342938#12"/>
    <trip id="143" depart="0.86" from="292071075#2" to="-13680570#6"/>
    <trip id="144" depart="0.86" from="-589357405#5" to="-13682807#1"/>
    <trip id="145" depart="0.87" from="-1159061926#18" to="13682975#9"/>
    <trip id="146" depart="0.88" from="13681310#0" to="-13682492#6"/>
    <trip id="147" depart="0.88" from="13682464#0" to="13680500#1"/>
    <trip id="148" depart="0.89" from="-74543358#4" to="-1223122922"/>
    <trip id="149" depart="0.89" from="-13680347#6" to="315559573#3"/>
    <trip id="150" depart="0.90" from="497742021#20" to="13680423#4"/>
    <trip id="151" depart="0.91" from="207883187#2" to="13680849#1"/>
    <trip id="152" depart="0.91" from="-13681151#3" to="-13681069"/>
    <trip id="153" depart="0.92" from="-13683150#3" to="483082949#5"/>
    <trip id="154" depart="0.92" from="184025991#3" to="292119473#11"/>
    <trip id="155" depart="0.93" from="483082949#0" to="-13682006#2"/>
    <trip id="156" depart="0.94" from="-13682315#1" to="-13680675#0"/>
    <trip id="157" depart="0.94" from="13683131#12" to="315559849#3"/>
    <trip id="158" depart="0.95" from="-378569209#2" to="13681248"/>
    <trip id="159" depart="0.95" from="-13681249" to="76608634#0"/>
    <trip id="160" depart="0.96" from="292119520" to="895706721#0"/>
    <trip id="161" depart="0.97" from="202055011#3" to="299709774#2"/>
    <trip id="162" depart="0.97" from="-1291555013#1" to="13682464#1"/>
    <trip id="163" depart="0.98" from="-202055012#2" to="809428282#1"/>
    <trip id="164" depart="0.98" from="191796249#3" to="292121795#4"/>
    <trip id="165" depart="0.99" from="202055011#3" to="-13682579#5"/>
    <trip id="166" depart="1.00" from="13683176#10" to="-13680783#5"/>
    <trip id="167" depart="1.00" from="292121802#6" to="292114879#2"/>
    <trip id="168" depart="1.01" from="-13682010#1" to="202055016#2"/>
    <trip id="169" depart="1.01" from="119655164" to="-191741377#1"/>
    <trip id="170" depart="1.02" from="180175684#8" to="-13682237#14"/>
    <trip id="171" depart="1.03" from="-1253790646#0" to="-13681759"/>
    <trip id="172" depart="1.03" from="-191800389" to="292121795#5"/>
    <trip id="173" depart="1.04" from="895011686#27" to="-13682885#7"/>
    <trip id="174" depart="1.04" from="13681376#5" to="-518342943#3"/>
    <trip id="175" depart="1.05" from="89626851#10" to="13680342#2"/>
    <trip id="176" depart="1.06" from="886092096" to="-13680849#4"/>
    <trip id="177" depart="1.06" from="895034486#1" to="-13681576#0"/>
    <trip id="178" depart="1.07" from="895011684#20" to="-13682522"/>
    <trip id="179" depart="1.07" from="-13680675#3" to="1029304920"/>
    <trip id="180" depart="1.08" from="13682386#10" to="-191800399#1"/>
    <trip id="181" depart="1.09" from="13680997#1" to="13678506#2"/>
    <trip id="182" depart="1.09" from="-292121802#31" to="13680780#1"/>
    <trip id="183" depart="1.10" from="-13682386#15" to="13682237#17"/>
    <trip id="184" depart="1.10" from="-1158072209#0" to="74543364#5"/>
    <trip id="185" depart="1.11" from="13679538#0" to="13682319#2"/>
    <trip id="186" depart="1.12" from="13682464#4" to="13681687#5"/>
    <trip id="187" depart="1.12" from="-292071092#1" to="-13680339#2"/>
    <trip id="188" depart="1.13" from="13681524#7" to="-202060852#2"/>
    <trip id="189" depart="1.13" from="-13683197" to="292071091#2"/>
    <trip id="190" depart="1.14" from="13682259#2" to="-180175600#4"/>
    <trip id="191" depart="1.15" from="-13683154#0" to="-613382845#0"/>
    <trip id="192" depart="1.15" from="-315560195#1" to="-13683170#0"/>
    <trip id="193" depart="1.16" from="-13680947#2" to="-886580078#0"/>
    <trip id="194" depart="1.16" from="886096995#5" to="13681821#0"/>
    <trip id="195" depart="1.17" from="497742021#15" to="13681190#4"/>
    <trip id="196" depart="1.18" from="-13682975#7" to="13680435#16"/>
    <trip id="197" depart="1.18" from="-1032377601#2" to="-13682986#0"/>
    <trip id="198" depart="1.19" from="-810283017#1" to="13680806#12"/>
    <trip id="199" depart="1.19" from="13681511#2" to="1223123007"/>
    <trip id="200" depart="1.20" from="-894678059#2" to="-13682042#4"/>
    <trip id="201" depart="1.21" from="1223122969#1" to="486471040#1"/>
    <trip id="202" depart="1.21" from="184025991#3" to="-13681524#16"/>
    <trip id="203" depart="1.22" from="-13680435#15" to="13678922"/>
    <trip id="204" depart="1.22" from="13681282#6" to="-209364536#0"/>
    <trip id="205" depart="1.23" from="202055015#0" to="13682603#2"/>
    <trip id="206" depart="1.24" from="13681607#7" to="-13682183#2"/>
    <trip id="207" depart="1.24" from="-13681637#4" to="-1291318428"/>
    <trip id="208" depart="1.25" from="-13682245" to="1223623594#7"/>
    <trip id="209" depart="1.25" from="292071093#0" to="-13680364"/>
    <trip id="210" depart="1.26" from="-497742021#8" to="13681344#1"/>
    <trip id="211" depart="1.27" from="-13681576#8" to="13682083#0"/>
    <trip id="212" depart="1.27" from="1253791876" to="-13682386#7"/>
    <trip id="213" depart="1.28" from="13681524#16" to="-119655167#1"/>
    <trip id="214" depart="1.28" from="13682507#1" to="13682975#3"/>
    <trip id="215" depart="1.29" from="-13680663#4" to="-89626851#1"/>
    <trip id="216" depart="1.30" from="-13681444#3" to="895007899#43"/>
    <trip id="217" depart="1.30" from="13678065#10" to="-13678571#1"/>
    <trip id="218" depart="1.31" from="-13682313#1" to="292071093#0"/>
    <trip id="219" depart="1.31" from="1159061926#20" to="191800373#4"/>
    <trip id="220" depart="1.32" from="13681576#24" to="89626889"/>
    <trip id="221" depart="1.33" from="13680849#19" to="894678058#0"/>
    <trip id="222" depart="1.33" from="315560191#1" to="13681151#3"/>
    <trip id="223" depart="1.34" from="13682257#2" to="13678118#2"/>
    <trip id="224" depart="1.34" from="203381205#5" to="13680435#15"/>
    <trip id="225" depart="1.35" from="378570153#4" to="13682482#1"/>
    <trip id="226" depart="1.36" from="1223122975" to="-13682480#2"/>
    <trip id="227" depart="1.36" from="-13682305#0" to="13681402#3"/>
    <trip id="228" depart="1.37" from="13682885#1" to="13679496"/>
    <trip id="229" depart="1.37" from="13681231" to="-13682788#0"/>
    <trip id="230" depart="1.38" from="-13680413#0" to="-13682975#4"/>
    <trip id="231" depart="1.39" from="-13682478#0" to="-202055014#15"/>
    <trip id="232" depart="1.39" from="13679723#0" to="-13681151#19"/>
    <trip id="233" depart="1.40" from="-13682105#1" to="13682044"/>
    <trip id="234" depart="1.40" from="13682117#1" to="-13680165#5"/>
    <trip id="235" depart="1.41" from="-378570153#2" to="13680423#14"/>
    <trip id="236" depart="1.42" from="-518342938#3" to="-13681964#10"/>
    <trip id="237" depart="1.42" from="-589357400#1" to="518342938#1"/>
    <trip id="238" depart="1.43" from="13680663#9" to="13682051#7"/>
    <trip id="239" depart="1.43" from="292114866#0" to="13682890#6"/>
    <trip id="240" depart="1.44" from="-292121795#5" to="-119655169#0"/>
    <trip id="241" depart="1.45" from="-223421969#10" to="13682638#7"/>
    <trip id="242" depart="1.45" from="292114856#1" to="895007899#2"/>
    <trip id="243" depart="1.46" from="-557585569#1" to="13682519#1"/>
    <trip id="244" depart="1.46" from="13680230#0" to="13681097#3"/>
    <trip id="245" depart="1.47" from="-13681973" to="-13682104#4"/>
    <trip id="246" depart="1.48" from="-886309723" to="-1297818602#0"/>
    <trip id="247" depart="1.48" from="-202055014#20" to="13681863#2"/>
    <trip id="248" depart="1.49" from="-37138317#1" to="-13681440"/>
    <trip id="249" depart="1.49" from="1223122927#2" to="-13681071#0"/>
    <trip id="250" depart="1.50" from="13681151#28" to="-1291555117#4"/>
    <trip id="251" depart="1.51" from="-308276204#1" to="13680633#3"/>
    <trip id="252" depart="1.51" from="-1291555117#6" to="13681441#1"/>
    <trip id="253" depart="1.52" from="-13681071#4" to="1223122993#0"/>
    <trip id="254" depart="1.52" from="-13678506#3" to="-315559849#6"/>
    <trip id="255" depart="1.53" from="-13681872#2" to="-202055018#22"/>
    <trip id="256" depart="1.54" from="13682757#2" to="-315559849#6"/>
    <trip id="257" depart="1.54" from="13682519#2" to="207883187#0"/>
    <trip id="258" depart="1.55" from="-13682346#1" to="-13680435#4"/>
    <trip id="259" depart="1.55" from="-1223123002#0" to="13680381#2"/>
    <trip id="260" depart="1.56" from="992062981" to="-292083323"/>
    <trip id="261" depart="1.57" from="13681433#5" to="13683150#5"/>
    <trip id="262" depart="1.57" from="13681452#0" to="13682644#3"/>
    <trip id="263" depart="1.58" from="894678058#1" to="-13681851#2"/>
    <trip id="264" depart="1.58" from="-1223123007" to="-13681300"/>
    <trip id="265" depart="1.59" from="-13680921#1" to="13681675#1"/>
    <trip id="266" depart="1.60" from="13680436#3" to="-13682087#2"/>
    <trip id="267" depart="1.60" from="13682042#0" to="13682929#3"/>
    <trip id="268" depart="1.61" from="-13681394#1" to="13681103#0"/>
    <trip id="269" depart="1.61" from="13682482#0" to="-13680849#24"/>
    <trip id="270" depart="1.62" from="202055016#4" to="895011686#10"/>
    <trip id="271" depart="1.63" from="-13680675#1" to="-1291555013#5"/>
    <trip id="272" depart="1.63" from="-13683176#12" to="13681821#0"/>
    <trip id="273" depart="1.64" from="895007899#5" to="-497742021#5"/>
    <trip id="274" depart="1.64" from="13682237#2" to="-13680423#12"/>
    <trip id="275" depart="1.65" from="13681915#0" to="13681299#8"/>
    <trip id="276" depart="1.66" from="-13680636#6" to="13682989#4"/>
    <trip id="277" depart="1.66" from="292071098#0" to="13681071#6"/>
    <trip id="278" depart="1.67" from="-13680849#24" to="89626855"/>
    <trip id="279" depart="1.67" from="13683135#3" to="-292071091#1"/>
    <trip id="280" depart="1.68" from="-76608632#2" to="-292121802#9"/>
    <trip id="281" depart="1.69" from="129441570#2" to="-292071064#2"/>
    <trip id="282" depart="1.69" from="292071092#0" to="202055286#6"/>
    <trip id="283" depart="1.70" from="-13680663#20" to="895011683#5"/>
    <trip id="284" depart="1.70" from="13681299#3" to="203386366"/>
    <trip id="285" depart="1.71" from="13682122#3" to="1127409890"/>
    <trip id="286" depart="1.72" from="13682429#13" to="895011686#16"/>
    <trip id="287" depart="1.72" from="-13682470" to="202055011#2"/>
    <trip id="288" depart="1.73" from="13679537#0" to="129441444#24"/>
    <trip id="289" depart="1.73" from="-886097033#1" to="13682429#9"/>
    <trip id="290" depart="1.74" from="-13682466#3" to="292114856#1"/>
    <trip id="291" depart="1.75" from="203386360" to="-13680542#2"/>
    <trip id="292" depart="1.75" from="299709771" to="-13682386#5"/>
    <trip id="293" depart="1.76" from="1223122921" to="13681151#14"/>
    <trip id="294" depart="1.76" from="-292119520" to="-129441570#7"/>
    <trip id="295" depart="1.77" from="292071100" to="-13681576#28"/>
    <trip id="296" depart="1.78" from="-13681872#5" to="191786459#5"/>
    <trip id="297" depart="1.78" from="-202055016#5" to="292208483#2"/>
    <trip id="298" depart="1.79" from="13682051#1" to="-13682805#1"/>
    <trip id="299" depart="1.79" from="-1223122923#2" to="886581438#1"/>
    <trip id="300" depart="1.80" from="-13680435#5" to="13682320"/>
    <trip id="301" depart="1.81" from="1223623577" to="13682772#0"/>
    <trip id="302" depart="1.81" from="13681915#0" to="13681476#0"/>
    <trip id="303" depart="1.82" from="1223623590#0" to="184025991#0"/>
    <trip id="304" depart="1.82" from="-13680557#1" to="-13682136"/>
    <trip id="305" depart="1.83" from="13681915#8" to="-191741378#0"/>
    <trip id="306" depart="1.84" from="13680663#15" to="1223623590#1"/>
    <trip id="307" depart="1.84" from="13678720#1" to="-89626851#11"/>
    <trip id="308" depart="1.85" from="13682478#3" to="-202060852#5"/>
    <trip id="309" depart="1.85" from="13682083#0" to="-13682644#3"/>
    <trip id="310" depart="1.86" from="-13682340#4" to="-13680951#1"/>
    <trip id="311" depart="1.87" from="-13681576#3" to="-13680939#1"/>
    <trip id="312" depart="1.87" from="13679408#0" to="13682853"/>
    <trip id="313" depart="1.88" from="-13681524#45" to="-13682061#0"/>
    <trip id="314" depart="1.88" from="1223123008#7" to="13682386#19"/>
    <trip id="315" depart="1.89" from="895706730" to="13679819"/>
    <trip id="316" depart="1.90" from="-13682638#1" to="-13680663#2"/>
    <trip id="317" depart="1.90" from="-13681576#6" to="-13682237#13"/>
    <trip id="318" depart="1.91" from="-13681524#11" to="-1223122984#2"/>
    <trip id="319" depart="1.91" from="13679091#0" to="-13682782"/>
    <trip id="320" depart="1.92" from="895702792#7" to="13680524#2"/>
    <trip id="321" depart="1.93" from="13682010#1" to="-13681030#2"/>
    <trip id="322" depart="1.93" from="292121802#16" to="1299993879#0"/>
    <trip id="323" depart="1.94" from="292121803#0" to="13680703#1"/>
    <trip id="324" depart="1.94" from="1223122947" to="119645061#2"/>
    <trip id="325" depart="1.95" from="-13681524#38" to="-13678818#1"/>
    <trip id="326" depart="1.96" from="886292835#1" to="1291318428"/>
    <trip id="327" depart="1.96" from="202055018#4" to="-557585562#1"/>
    <trip id="328" depart="1.97" from="-13680342#7" to="13681341"/>
    <trip id="329" depart="1.97" from="-13678945" to="-13681282#9"/>
    <trip id="330" depart="1.98" from="13680435#4" to="-180175684#8"/>
    <trip id="331" depart="1.99" from="93917507#1" to="-13680908#2"/>
    <trip id="332" depart="1.99" from="13682807#1" to="13681102#4"/>
    <trip id="333" depart="2.00" from="180175600#10" to="-13682197#0"/>
    <trip id="334" depart="2.00" from="13678171#3" to="1223122932"/>
    <trip id="335" depart="2.01" from="-894992481#0" to="292119473#0"/>
    <trip id="336" depart="2.02" from="897289320#0" to="-191741377#3"/>
    <trip id="337" depart="2.02" from="13681151#19" to="13681151#1"/>
    <trip id="338" depart="2.03" from="13682448#1" to="886580098"/>
    <trip id="339" depart="2.03" from="-13681803#5" to="-13682010#1"/>
    <trip id="340" depart="2.04" from="13681524#4" to="-13681391#0"/>
    <trip id="341" depart="2.05" from="-13681424#6" to="-13680416"/>
    <trip id="342" depart="2.05" from="-1159061926#12" to="1223122932"/>
    <trip id="343" depart="2.06" from="13680849#0" to="-13683133#1"/>
    <trip id="344" depart="2.06" from="-13682117#1" to="13682220"/>
    <trip id="345" depart="2.07" from="13682083#0" to="1223122962#0"/>
    <trip id="346" depart="2.08" from="13681872#3" to="74543355#8"/>
    <trip id="347" depart="2.08" from="13683176#13" to="13681297"/>
    <trip id="348" depart="2.09" from="13681524#46" to="886066110#3"/>
    <trip id="349" depart="2.09" from="-598082628#1" to="13680423#27"/>
    <trip id="350" depart="2.10" from="13681412#1" to="556953429#3"/>
    <trip id="351" depart="2.11" from="203381197#0" to="-13680342#7"/>
    <trip id="352" depart="2.11" from="-13681381" to="-191786459#12"/>
    <trip id="353" depart="2.12" from="13682492#3" to="13680663#20"/>
    <trip id="354" depart="2.12" from="-13682772#0" to="-13680997#0"/>
    <trip id="355" depart="2.13" from="13681886#0" to="13682105#1"/>
    <trip id="356" depart="2.14" from="886309722" to="13678065#1"/>
    <trip id="357" depart="2.14" from="1223623598" to="-13680435#1"/>
    <trip id="358" depart="2.15" from="-13678065#1" to="-93917507#1"/>
    <trip id="359" depart="2.15" from="-191741379" to="-13682433#6"/>
    <trip id="360" depart="2.16" from="-13680550#1" to="895011684#14"/>
    <trip id="361" depart="2.17" from="209364536#2" to="13680742"/>
    <trip id="362" depart="2.17" from="895007899#0" to="991065321"/>
    <trip id="363" depart="2.18" from="13681607#4" to="-13682638#3"/>
    <trip id="364" depart="2.18" from="-13678065#2" to="13682722#1"/>
    <trip id="365" depart="2.19" from="1223122955" to="13681524#31"/>
    <trip id="366" depart="2.20" from="589357405#6" to="-13681576#26"/>
    <trip id="367" depart="2.20" from="13680675#6" to="13681394#0"/>
    <trip id="368" depart="2.21" from="1223623593#0" to="-13680569#2"/>
    <trip id="369" depart="2.21" from="-203381205#3" to="-207749057#2"/>
    <trip id="370" depart="2.22" from="13681576#7" to="292114876#2"/>
    <trip id="371" depart="2.23" from="-191800400#5" to="13682042#5"/>
    <trip id="372" depart="2.23" from="-13682763#1" to="886580078#1"/>
    <trip id="373" depart="2.24" from="202055014#1" to="13680446"/>
    <trip id="374" depart="2.24" from="1159061926#1" to="-191800400#3"/>
    <trip id="375" depart="2.25" from="-191786459#10" to="895034475"/>
    <trip id="376" depart="2.26" from="-37138317#0" to="13678818#0"/>
    <trip id="377" depart="2.26" from="89626894" to="13681576#1"/>
    <trip id="378" depart="2.27" from="13679911#3" to="-886066110#1"/>
    <trip id="379" depart="2.27" from="-13681524#60" to="-292119473#7"/>
    <trip id="380" depart="2.28" from="13682638#0" to="13681299#12"/>
    <trip id="381" depart="2.29" from="13682730" to="-13681896#3"/>
    <trip id="382" depart="2.29" from="13680334#3" to="76608593#3"/>
    <trip id="383" depart="2.30" from="-886579419#4" to="13682089#0"/>
    <trip id="384" depart="2.30" from="-13680849#26" to="895702791#0"/>
    <trip id="385" depart="2.31" from="13681032#1" to="-13682340#8"/>
    <trip id="386" depart="2.32" from="-13681293#1" to="13680466"/>
    <trip id="387" depart="2.32" from="13680342#8" to="-13680617#11"/>
    <trip id="388" depart="2.33" from="923561807" to="589357403#1"/>
    <trip id="389" depart="2.33" from="119655169#2" to="-13680903#5"/>
    <trip id="390" depart="2.34" from="203505144#7" to="13678048#1"/>
    <trip id="391" depart="2.35" from="13682237#3" to="13678274"/>
    <trip id="392" depart="2.35" from="-13682480#5" to="223421969#2"/>
    <trip id="393" depart="2.36" from="89626847#1" to="-13682386#5"/>
    <trip id="394" depart="2.36" from="13680342#10" to="-315560180#4"/>
    <trip id="395" depart="2.37" from="72612308#0" to="13678271#1"/>
    <trip id="396" depart="2.38" from="292134213#2" to="292121795#3"/>
    <trip id="397" depart="2.38" from="-13682494#2" to="180175609#3"/>
    <trip id="398" depart="2.39" from="-518342938#1" to="886071145#3"/>
    <trip id="399" depart="2.39" from="1298127589#0" to="202055018#9"/>
    <trip id="400" depart="2.40" from="-13682638#0" to="-16479394#0"/>
    <trip id="401" depart="2.41" from="13680739" to="991065298#0"/>
    <trip id="402" depart="2.41" from="1223623584" to="-13681282#6"/>
    <trip id="403" depart="2.42" from="13679538#0" to="-292071086#2"/>
    <trip id="404" depart="2.42" from="13680342#5" to="13680423#19"/>
    <trip id="405" depart="2.43" from="1159061926#13" to="-202055014#3"/>
    <trip id="406" depart="2.44" from="-13681524#8" to="13682085"/>
    <trip id="407" depart="2.44" from="13680563#0" to="-13682259#3"/>
    <trip id="408" depart="2.45" from="13682989#4" to="-13678171#3"/>
    <trip id="409" depart="2.45" from="13682474#1" to="13682185#2"/>
    <trip id="410" depart="2.46" from="202055012#3" to="-353261802"/>
    <trip id="411" depart="2.47" from="13681524#61" to="202055019#0"/>
    <trip id="412" depart="2.47" from="89626851#0" to="1329813690#1"/>
    <trip id="413" depart="2.48" from="-1329829514#0" to="13678075"/>
    <trip id="414" depart="2.48" from="13680783#8" to="292121802#5"/>
    <trip id="415" depart="2.49" from="292121821#0" to="119645061#1"/>
    <trip id="416" depart="2.50" from="13678345#1" to="1223122976#0"/>
    <trip id="417" depart="2.50" from="13682305#3" to="-74543358#2"/>
    <trip id="418" depart="2.51" from="13681511#2" to="-13681344#0"/>
    <trip id="419" depart="2.51" from="1223122948" to="895020092"/>