<?xml version="1.0" encoding="UTF-8"?>

<!-- generated on 2025-04-21 17:49:38.893897 by randomTrips.py v1_22_0+0002-63e50f52594
<configuration>
    <net-file value="C:\Users\chand\OneDrive\Desktop\TrafficSignalManagement\data\map.net.xml"/>
    <output-trip-file value="C:\Users\chand\OneDrive\Desktop\TrafficSignalManagement\data\trips.trips.xml"/>
    <seed value="5088"/>
    <end value="4000.0"/>
    <period value="0.737"/>
</configuration>
-->

<routes xmlns:xsi="http://www.w3.org/2001/XMLSchema-instance" xsi:noNamespaceSchemaLocation="http://sumo.dlr.de/xsd/routes_file.xsd">
    <trip id="0" depart="0.00" from="292121821#0" to="13680617#2"/>
    <trip id="1" depart="0.74" from="-13680849#14" to="292114876#2"/>
    <trip id="2" depart="1.47" from="13680557#0" to="895034486#0"/>
    <trip id="3" depart="2.21" from="202055011#2" to="-13682042#5"/>
    <trip id="4" depart="2.95" from="13679538#1" to="-13682055#0"/>
    <trip id="5" depart="3.69" from="13682478#1" to="-315560191#0"/>
    <trip id="6" depart="4.42" from="-13682814#1" to="1223623581"/>
    <trip id="7" depart="5.16" from="292114868#0" to="-292114864"/>
    <trip id="8" depart="5.90" from="1199248045#0" to="315560195#1"/>
    <trip id="9" depart="6.63" from="13682886" to="1223122917"/>
    <trip id="10" depart="7.37" from="-292114866#1" to="209364536#2"/>
    <trip id="11" depart="8.11" from="617352699#1" to="-13682346#3"/>
    <trip id="12" depart="8.84" from="-292129113#1" to="13681576#26"/>
    <trip id="13" depart="9.58" from="292114870" to="-202055012#6"/>
    <trip id="14" depart="10.32" from="209364531" to="13680165#4"/>
    <trip id="15" depart="11.05" from="-13681759" to="-202055013#0"/>
    <trip id="16" depart="11.79" from="13680247#1" to="-13681803#22"/>
    <trip id="17" depart="12.53" from="-886084905#9" to="13682429#19"/>
    <trip id="18" depart="13.27" from="1159433831" to="292121802#4"/>
    <trip id="19" depart="14.00" from="-13680165#2" to="-13682308#0"/>
    <trip id="20" depart="14.74" from="-292071077" to="202055018#13"/>
    <trip id="21" depart="15.48" from="13682083#1" to="-13682185#2"/>
    <trip id="22" depart="16.21" from="13681448#0" to="13678057#1"/>
    <trip id="23" depart="16.95" from="895007899#45" to="13682492#4"/>
    <trip id="24" depart="17.69" from="13680663#20" to="-13682492#3"/>
    <trip id="25" depart="18.42" from="13682519#3" to="202764065#0"/>
    <trip id="26" depart="19.16" from="-93917507#0" to="895034486#2"/>
    <trip id="27" depart="19.90" from="13682638#1" to="192952198#1"/>
    <trip id="28" depart="20.64" from="13682237#8" to="13680808#1"/>
    <trip id="29" depart="21.37" from="-13681857#1" to="13681524#16"/>
    <trip id="30" depart="22.11" from="202055013#2" to="184025991#0"/>
    <trip id="31" depart="22.85" from="-13682386#17" to="-1223122918"/>
    <trip id="32" depart="23.58" from="13681524#16" to="1329829514#0"/>
    <trip id="33" depart="24.32" from="518342938#5" to="-13679002#6"/>
    <trip id="34" depart="25.06" from="-207749057#1" to="13679538#6"/>
    <trip id="35" depart="25.79" from="-202055011#2" to="13679538#2"/>
    <trip id="36" depart="26.53" from="-13681413" to="-13680423#17"/>
    <trip id="37" depart="27.27" from="-191786459#5" to="1223623582#0"/>
    <trip id="38" depart="28.01" from="-292123187#1" to="-13682051#3"/>
    <trip id="39" depart="28.74" from="895007899#45" to="13680663#3"/>
    <trip id="40" depart="29.48" from="13681524#4" to="589357403#0"/>
    <trip id="41" depart="30.22" from="1223122997#1" to="13680480#2"/>
    <trip id="42" depart="30.95" from="13681524#61" to="-13681397#1"/>
    <trip id="43" depart="31.69" from="895706730" to="-13680423#27"/>
    <trip id="44" depart="32.43" from="1223122925" to="13681576#19"/>
    <trip id="45" depart="33.16" from="13683029" to="13681238#6"/>
    <trip id="46" depart="33.90" from="-13682638#2" to="-13683152#1"/>
    <trip id="47" depart="34.64" from="1223122927#0" to="292071075#4"/>
    <trip id="48" depart="35.38" from="-13683170#0" to="1223122963"/>
    <trip id="49" depart="36.11" from="-13680233#1" to="-13680809#2"/>
    <trip id="50" depart="36.85" from="-1223122926#5" to="13680570#3"/>
    <trip id="51" depart="37.59" from="13680663#9" to="76608634#0"/>
    <trip id="52" depart="38.32" from="13681310#1" to="13682346#3"/>
    <trip id="53" depart="39.06" from="378520702#1" to="202060852#6"/>
    <trip id="54" depart="39.80" from="13680809#3" to="292133840"/>
    <trip id="55" depart="40.53" from="13682326" to="-1223122998"/>
    <trip id="56" depart="41.27" from="292114872#1" to="-13678171#6"/>
    <trip id="57" depart="42.01" from="1159061926#15" to="202055013#0"/>
    <trip id="58" depart="42.75" from="497742021#20" to="89626846#0"/>
    <trip id="59" depart="43.48" from="-16479394#0" to="-202055014#12"/>
    <trip id="60" depart="44.22" from="518342938#12" to="-886084905#11"/>
    <trip id="61" depart="44.96" from="1223122971#0" to="13683081"/>
    <trip id="62" depart="45.69" from="-497742021#5" to="-13681402#6"/>
    <trip id="63" depart="46.43" from="13678506#5" to="-13680849#15"/>
    <trip id="64" depart="47.17" from="13681190#0" to="-13682237#41"/>
    <trip id="65" depart="47.91" from="-13681613#4" to="-13682478#2"/>
    <trip id="66" depart="48.64" from="13683156#1" to="-13682473#2"/>
    <trip id="67" depart="49.38" from="-13682220" to="-1223122918"/>
    <trip id="68" depart="50.12" from="-897289329#0" to="-13682480#0"/>
    <trip id="69" depart="50.85" from="13681151#17" to="-13680783#0"/>
    <trip id="70" depart="51.59" from="-202055016#3" to="497742021#11"/>
    <trip id="71" depart="52.33" from="-13680983#0" to="13682237#27"/>
    <trip id="72" depart="53.06" from="13681316#0" to="-13681886#2"/>
    <trip id="73" depart="53.80" from="-897289329#4" to="-13681509"/>
    <trip id="74" depart="54.54" from="557585569#5" to="378570919"/>
    <trip id="75" depart="55.28" from="13681607#0" to="990673788"/>
    <trip id="76" depart="56.01" from="13681019" to="13681032#1"/>
    <trip id="77" depart="56.75" from="-184025991#5" to="76608602#1"/>
    <trip id="78" depart="57.49" from="897289320#0" to="191786459#5"/>
    <trip id="79" depart="58.22" from="89626842#2" to="292119473#8"/>
    <trip id="80" depart="58.96" from="-13681821#0" to="203381198#2"/>
    <trip id="81" depart="59.70" from="-1202223496#0" to="13682838"/>
    <trip id="82" depart="60.43" from="-13683154#1" to="-1291318427#0"/>
    <trip id="83" depart="61.17" from="-13681607#9" to="-180175684#8"/>
    <trip id="84" depart="61.91" from="13681344#0" to="-13683133#1"/>
    <trip id="85" depart="62.65" from="-1291555014#1" to="192952203#5"/>
    <trip id="86" depart="63.38" from="13683176#2" to="-315559962#1"/>
    <trip id="87" depart="64.12" from="-13682448#3" to="209364536#0"/>
    <trip id="88" depart="64.86" from="13683133#0" to="895011683#4"/>
    <trip id="89" depart="65.59" from="13682158#3" to="-13680849#12"/>
    <trip id="90" depart="66.33" from="895011686#9" to="-180175669#3"/>
    <trip id="91" depart="67.07" from="895034486#1" to="129441570#3"/>
    <trip id="92" depart="67.80" from="13680435#8" to="13681204#4"/>
    <trip id="93" depart="68.54" from="-483082949#5" to="1297818602#1"/>
    <trip id="94" depart="69.28" from="13680806#12" to="13680636#3"/>
    <trip id="95" depart="70.02" from="13681299#6" to="-13681071#8"/>
    <trip id="96" depart="70.75" from="-13680980#2" to="1223122986#0"/>
    <trip id="97" depart="71.49" from="13681373#0" to="13678271#1"/>
    <trip id="98" depart="72.23" from="-13681412#4" to="13682507#3"/>
    <trip id="99" depart="72.96" from="13678864#1" to="13682975#1"/>
    <trip id="100" depart="73.70" from="13682140#1" to="13680958#1"/>
    <trip id="101" depart="74.44" from="1223623591#0" to="129441444#32"/>
    <trip id="102" depart="75.17" from="180175609#3" to="1223623590#0"/>
    <trip id="103" depart="75.91" from="315560019#2" to="-119662156#4"/>
    <trip id="104" depart="76.65" from="13682051#0" to="-589357405#8"/>
    <trip id="105" depart="77.38" from="89626851#0" to="-1159061926#7"/>
    <trip id="106" depart="78.12" from="13680165#3" to="-13681957#1"/>
    <trip id="107" depart="78.86" from="13683131#5" to="-292071065"/>
    <trip id="108" depart="79.60" from="-202055014#22" to="13682519#7"/>
    <trip id="109" depart="80.33" from="13680903#7" to="13682366#0"/>
    <trip id="110" depart="81.07" from="-13681433#5" to="894782754#0"/>
    <trip id="111" depart="81.81" from="-13680423#24" to="-180175684#6"/>
    <trip id="112" depart="82.54" from="-13681524#8" to="-207749057#4"/>
    <trip id="113" depart="83.28" from="497742021#8" to="-13682644#1"/>
    <trip id="114" depart="84.02" from="1223122993#0" to="-13682482#1"/>
    <trip id="115" depart="84.75" from="-1299993879#2" to="76608604#2"/>
    <trip id="116" depart="85.49" from="-13680558#2" to="1202223498#1"/>
    <trip id="117" depart="86.23" from="-13680951#0" to="1329829512#3"/>
    <trip id="118" depart="86.97" from="-13682644#5" to="13682853"/>
    <trip id="119" depart="87.70" from="894133158#0" to="13680423#9"/>
    <trip id="120" depart="88.44" from="-886084905#10" to="-13681576#4"/>
    <trip id="121" depart="89.18" from="-292121795#5" to="13681013#2"/>
    <trip id="122" depart="89.91" from="1223122972" to="13678271#1"/>
    <trip id="123" depart="90.65" from="13681402#2" to="315559849#2"/>
    <trip id="124" depart="91.39" from="-13681524#26" to="13681576#15"/>
    <trip id="125" depart="92.12" from="315560180#5" to="518342938#5"/>
    <trip id="126" depart="92.86" from="-13681097#7" to="13678274"/>
    <trip id="127" depart="93.60" from="13680233#1" to="-486471032#3"/>
    <trip id="128" depart="94.34" from="-894678059#1" to="-315560051#1"/>
    <trip id="129" depart="95.07" from="13680435#9" to="13681038#3"/>
    <trip id="130" depart="95.81" from="-13681075#1" to="532033136#0"/>
    <trip id="131" depart="96.55" from="518342938#3" to="13682320"/>
    <trip id="132" depart="97.28" from="-191786459#11" to="13682644#1"/>
    <trip id="133" depart="98.02" from="-13682757#3" to="-292121802#20"/>
    <trip id="134" depart="98.76" from="-13678375#1" to="-13679911#4"/>
    <trip id="135" depart="99.49" from="-13680663#11" to="990662002#1"/>
    <trip id="136" depart="100.23" from="378570153#4" to="-292119473#6"/>
    <trip id="137" depart="100.97" from="-13681282#5" to="-13680636#4"/>
    <trip id="138" depart="101.71" from="13681964#11" to="-292071086#6"/>
    <trip id="139" depart="102.44" from="-13679832#1" to="13682989#3"/>
    <trip id="140" depart="103.18" from="191800390" to="-13681639#7"/>
    <trip id="141" depart="103.92" from="13681252" to="13681576#8"/>
    <trip id="142" depart="104.65" from="895011683#5" to="13681190#4"/>
    <trip id="143" depart="105.39" from="895702791#3" to="-13680334#0"/>
    <trip id="144" depart="106.13" from="-191741378#1" to="13682975#1"/>
    <trip id="145" depart="106.86" from="13682087#0" to="-1223122997#3"/>
    <trip id="146" depart="107.60" from="89626851#3" to="-13678132#2"/>
    <trip id="147" depart="108.34" from="-292071086#0" to="-886084905#4"/>
    <trip id="148" depart="109.08" from="-13681661" to="-13681069"/>
    <trip id="149" depart="109.81" from="-13681661" to="180175653#1"/>
    <trip id="150" depart="110.55" from="886578341#0" to="13681402#14"/>
    <trip id="151" depart="111.29" from="202055012#5" to="292114879#1"/>
    <trip id="152" depart="112.02" from="-13681440" to="-315560180#8"/>
    <trip id="153" depart="112.76" from="13681524#58" to="180175601#0"/>
    <trip id="154" depart="113.50" from="13680244#1" to="13680939#2"/>
    <trip id="155" depart="114.23" from="-292121802#28" to="-13681190#2"/>
    <trip id="156" depart="114.97" from="-13680849#6" to="895007899#50"/>
    <trip id="157" depart="115.71" from="13682158#0" to="-13681238#0"/>
    <trip id="158" depart="116.45" from="191786480#0" to="-886066110#3"/>
    <trip id="159" depart="117.18" from="-13682638#3" to="315560208#1"/>
    <trip id="160" depart="117.92" from="13681402#1" to="895011686#17"/>
    <trip id="161" depart="118.66" from="-13681300" to="13682237#36"/>
    <trip id="162" depart="119.39" from="292071064#1" to="-13680435#5"/>
    <trip id="163" depart="120.13" from="13681002#4" to="886092094#3"/>
    <trip id="164" depart="120.87" from="-202055286#6" to="378520702#3"/>
    <trip id="165" depart="121.60" from="-13680675#7" to="-1291318427#3"/>
    <trip id="166" depart="122.34" from="13681002#2" to="-76608632#2"/>
    <trip id="167" depart="123.08" from="13683156#1" to="895007899#20"/>
    <trip id="168" depart="123.82" from="223422189#0" to="1223122917"/>
    <trip id="169" depart="124.55" from="13681524#36" to="-13682751#0"/>
    <trip id="170" depart="125.29" from="-13681607#7" to="13683131#2"/>
    <trip id="171" depart="126.03" from="-13681524#63" to="-13681803#18"/>
    <trip id="172" depart="126.76" from="89626851#0" to="-292114868#3"/>
    <trip id="173" depart="127.50" from="13682010#2" to="-13682929#4"/>
    <trip id="174" depart="128.24" from="13680976#1" to="-13680802#0"/>
    <trip id="175" depart="128.97" from="13681576#30" to="-13682464#0"/>
    <trip id="176" depart="129.71" from="-13680247#0" to="-886579419#3"/>
    <trip id="177" depart="130.45" from="13682237#22" to="-13681576#32"/>
    <trip id="178" depart="131.19" from="895034495" to="13682492#2"/>
    <trip id="179" depart="131.92" from="-207762597#1" to="13678065#6"/>
    <trip id="180" depart="132.66" from="13682494#5" to="13680435#2"/>
    <trip id="181" depart="133.40" from="-13682237#32" to="13682183#1"/>
    <trip id="182" depart="134.13" from="-292071091#0" to="-292208483#0"/>
    <trip id="183" depart="134.87" from="13682895" to="-13680435#4"/>
    <trip id="184" depart="135.61" from="191800373#5" to="-13678057#1"/>
    <trip id="185" depart="136.34" from="-13682480#4" to="-13681300"/>
    <trip id="186" depart="137.08" from="13681642" to="-13682975#12"/>
    <trip id="187" depart="137.82" from="13678506#8" to="-13682326"/>
    <trip id="188" depart="138.56" from="-886066110#1" to="119645067#0"/>
    <trip id="189" depart="139.29" from="209711044" to="13682237#13"/>
    <trip id="190" depart="140.03" from="-292121792#2" to="13681102#9"/>
    <trip id="191" depart="140.77" from="13683150#2" to="13678063#4"/>
    <trip id="192" depart="141.50" from="13682029#2" to="191786459#12"/>
    <trip id="193" depart="142.24" from="-13679091#1" to="292134212"/>
    <trip id="194" depart="142.98" from="13680336" to="-202055014#2"/>
    <trip id="195" depart="143.71" from="-13681687#3" to="-897289329#5"/>
    <trip id="196" depart="144.45" from="-202055014#9" to="-13680423#30"/>
    <trip id="197" depart="145.19" from="-532033136#2" to="13678345#4"/>
    <trip id="198" depart="145.93" from="74543355#7" to="13681524#41"/>
    <trip id="199" depart="146.66" from="-13683135#3" to="-13680339#6"/>
    <trip id="200" depart="147.40" from="13681344#1" to="13680555#5"/>
    <trip id="201" depart="148.14" from="13681348#0" to="-292121802#30"/>
    <trip id="202" depart="148.87" from="223422189#0" to="292071091#0"/>
    <trip id="203" depart="149.61" from="886579419#1" to="129441444#35"/>
    <trip id="204" depart="150.35" from="-13680903#5" to="13678078#6"/>
    <trip id="205" depart="151.08" from="89626884#0" to="207883187#1"/>
    <trip id="206" depart="151.82" from="192952205#6" to="-13680698#2"/>
    <trip id="207" depart="152.56" from="-13683137#1" to="-1329813688"/>
    <trip id="208" depart="153.30" from="-13682429#6" to="13681524#41"/>
    <trip id="209" depart="154.03" from="-897245048#0" to="89626851#16"/>
    <trip id="210" depart="154.77" from="-486471032#2" to="-315560191#1"/>
    <trip id="211" depart="155.51" from="-13680698#0" to="292119473#3"/>
    <trip id="212" depart="156.24" from="-1081626714" to="-13681394#0"/>
    <trip id="213" depart="156.98" from="-13679090#0" to="-13682014#0"/>
    <trip id="214" depart="157.72" from="202055014#30" to="-13682366#0"/>
    <trip id="215" depart="158.45" from="13681299#7" to="-209364536#0"/>
    <trip id="216" depart="159.19" from="-13681424#1" to="13681299#13"/>
    <trip id="217" depart="159.93" from="1223122959" to="-13681190#0"/>
    <trip id="218" depart="160.67" from="13682010#4" to="-13682237#16"/>
    <trip id="219" depart="161.40" from="-292114860#2" to="89626853"/>
    <trip id="220" depart="162.14" from="895702793#3" to="557585569#2"/>
    <trip id="221" depart="162.88" from="13680947#3" to="894992481#1"/>
    <trip id="222" depart="163.61" from="-191786459#1" to="-315560014#5"/>
    <trip id="223" depart="164.35" from="617352699#0" to="-13681576#13"/>
    <trip id="224" depart="165.09" from="13681071#2" to="292071064#3"/>
    <trip id="225" depart="165.82" from="-1223122986#1" to="589357400#3"/>
    <trip id="226" depart="166.56" from="886084905#4" to="-13682051#3"/>
    <trip id="227" depart="167.30" from="13681964#3" to="24850085#3"/>
    <trip id="228" depart="168.04" from="-292119473#2" to="-13678054"/>
    <trip id="229" depart="168.77" from="13679091#4" to="-13682603#2"/>
    <trip id="230" depart="169.51" from="895706721#1" to="13683150#2"/>
    <trip id="231" depart="170.25" from="13681204#4" to="557585563#0"/>
    <trip id="232" depart="170.98" from="13682386#21" to="-308276204#0"/>
    <trip id="233" depart="171.72" from="13680675#0" to="-13683176#7"/>
    <trip id="234" depart="172.46" from="13681099#1" to="119655169#3"/>
    <trip id="235" depart="173.19" from="-315560051#1" to="-532033136#0"/>
    <trip id="236" depart="173.93" from="13682492#3" to="-13681524#13"/>
    <trip id="237" depart="174.67" from="13681803#17" to="13681524#22"/>
    <trip id="238" depart="175.41" from="13682644#3" to="13683097#2"/>
    <trip id="239" depart="176.14" from="-13682122#5" to="13681511#1"/>
    <trip id="240" depart="176.88" from="-809428282#5" to="-13680947#3"/>
    <trip id="241" depart="177.62" from="-13680633#3" to="391394236"/>
    <trip id="242" depart="178.35" from="-1223123010#0" to="292071086#2"/>
    <trip id="243" depart="179.09" from="292188922" to="292114856#1"/>
    <trip id="244" depart="179.83" from="-13682313#2" to="-13682237#31"/>
    <trip id="245" depart="180.56" from="-180175684#3" to="119645068#3"/>
    <trip id="246" depart="181.30" from="-504090216" to="129441570#2"/>
    <trip id="247" depart="182.04" from="13681964#4" to="13681595#0"/>
    <trip id="248" depart="182.78" from="13681402#9" to="-191786493#2"/>
    <trip id="249" depart="183.51" from="13681316#0" to="-13681886#3"/>
    <trip id="250" depart="184.25" from="-13680849#8" to="13682386#3"/>
    <trip id="251" depart="184.99" from="13680423#18" to="13681102#3"/>
    <trip id="252" depart="185.72" from="13682237#7" to="-13681102#8"/>
    <trip id="253" depart="186.46" from="-292071098#0" to="886084921"/>
    <trip id="254" depart="187.20" from="13682482#0" to="-13680528"/>
    <trip id="255" depart="187.93" from="184025991#4" to="-292121802#11"/>
    <trip id="256" depart="188.67" from="1223623557" to="13681110#1"/>
    <trip id="257" depart="189.41" from="16479394#0" to="-13680570#6"/>
    <trip id="258" depart="190.15" from="1202223498#0" to="1329829513#0"/>
    <trip id="259" depart="190.88" from="-292114862#1" to="13682386#9"/>
    <trip id="260" depart="191.62" from="-13680649#2" to="13681002#4"/>
    <trip id="261" depart="192.36" from="-13680802#1" to="13683170#1"/>
    <trip id="262" depart="193.09" from="13682772#1" to="1223122982#0"/>
    <trip id="263" depart="193.83" from="203381197#4" to="292121797#1"/>
    <trip id="264" depart="194.57" from="13681613#0" to="13681524#35"/>
    <trip id="265" depart="195.30" from="-13682044" to="-13681964#14"/>
    <trip id="266" depart="196.04" from="13680563#1" to="13682805#1"/>
    <trip id="267" depart="196.78" from="-13680849#25" to="-13680378#0"/>
    <trip id="268" depart="197.52" from="292071063#1" to="-13680849#14"/>
    <trip id="269" depart="198.25" from="-886580098" to="13681151#3"/>
    <trip id="270" depart="198.99" from="556953431" to="129441444#12"/>
    <trip id="271" depart="199.73" from="13682885#3" to="89626851#13"/>
    <trip id="272" depart="200.46" from="13681687#4" to="13683150#1"/>
    <trip id="273" depart="201.20" from="991065292#1" to="-13680663#14"/>
    <trip id="274" depart="201.94" from="-13683081" to="89627453#2"/>
    <trip id="275" depart="202.67" from="895007899#25" to="-13681098#0"/>
    <trip id="276" depart="203.41" from="292123187#0" to="13682519#2"/>
    <trip id="277" depart="204.15" from="-1322341312#2" to="-13681071#2"/>
    <trip id="278" depart="204.89" from="13681576#22" to="13680783#6"/>
    <trip id="279" depart="205.62" from="-13680663#13" to="13681232#2"/>
    <trip id="280" depart="206.36" from="-13679920#0" to="13682390#0"/>
    <trip id="281" depart="207.10" from="13682259#5" to="-37138317#6"/>
    <trip id="282" depart="207.83" from="13682386#7" to="13680435#9"/>
    <trip id="283" depart="208.57" from="13681964#10" to="-292114856#0"/>
    <trip id="284" depart="209.31" from="13680947#1" to="-202055014#5"/>
    <trip id="285" depart="210.04" from="557585569#5" to="-13681097#0"/>
    <trip id="286" depart="210.78" from="13681110#0" to="497742021#17"/>
    <trip id="287" depart="211.52" from="-13679002#0" to="-886084902#0"/>
    <trip id="288" depart="212.26" from="497742021#4" to="292119473#1"/>
    <trip id="289" depart="212.99" from="-223421969#7" to="-13680423#13"/>
    <trip id="290" depart="213.73" from="-13680563#1" to="13681013#3"/>
    <trip id="291" depart="214.47" from="119645063" to="13678922"/>
    <trip id="292" depart="215.20" from="-315559849#6" to="486471031#0"/>
    <trip id="293" depart="215.94" from="-286684384#1" to="13682618#5"/>
    <trip id="294" depart="216.68" from="-13681915#1" to="-191786459#10"/>
    <trip id="295" depart="217.41" from="1223122991#1" to="-352915897#0"/>
    <trip id="296" depart="218.15" from="-13680633#5" to="-13681151#8"/>
    <trip id="297" depart="218.89" from="13680783#3" to="895007899#41"/>
    <trip id="298" depart="219.63" from="895034493" to="-202055286#0"/>
    <trip id="299" depart="220.36" from="-71460832#0" to="1223122969#2"/>
    <trip id="300" depart="221.10" from="-13681440" to="1223122926#1"/>
    <trip id="301" depart="221.84" from="13682480#6" to="-13681190#2"/>
    <trip id="302" depart="222.57" from="315559849#5" to="13681613#5"/>
    <trip id="303" depart="223.31" from="292121795#2" to="13681863#2"/>
    <trip id="304" depart="224.05" from="13681071#3" to="-13682989#6"/>
    <trip id="305" depart="224.78" from="-292071091#1" to="292114868#2"/>
    <trip id="306" depart="225.52" from="-13681872#0" to="-13680961#1"/>
    <trip id="307" depart="226.26" from="-13681127#1" to="13682975#3"/>
    <trip id="308" depart="227.00" from="-13682738" to="13682237#3"/>
    <trip id="309" depart="227.73" from="-13678078#8" to="-13680959#2"/>
    <trip id="310" depart="228.47" from="-13681957#0" to="-1223122984#6"/>
    <trip id="311" depart="229.21" from="13682104#0" to="557585563#0"/>
    <trip id="312" depart="229.94" from="13678571#1" to="-202055286#2"/>
    <trip id="313" depart="230.68" from="-202055014#19" to="76608604#2"/>
    <trip id="314" depart="231.42" from="292114866#0" to="-13682386#17"/>
    <trip id="315" depart="232.15" from="-977370176#0" to="13680557#0"/>
    <trip id="316" depart="232.89" from="13680423#31" to="-13680849#9"/>
    <trip id="317" depart="233.63" from="13682807#0" to="292071093#0"/>
    <trip id="318" depart="234.37" from="-13680435#12" to="13678565"/>
    <trip id="319" depart="235.10" from="-13680908#4" to="-13681151#15"/>
    <trip id="320" depart="235.84" from="-13682386#4" to="378520702#2"/>
    <trip id="321" depart="236.58" from="13678078#0" to="13680423#17"/>
    <trip id="322" depart="237.31" from="-13681316#2" to="-202055014#14"/>
    <trip id="323" depart="238.05" from="-1329813690#0" to="292083322#1"/>
    <trip id="324" depart="238.79" from="-292131204#0" to="13682706#0"/>
    <trip id="325" depart="239.52" from="-191741379" to="13682579#2"/>
    <trip id="326" depart="240.26" from="119645067#1" to="13682492#4"/>
    <trip id="327" depart="241.00" from="-13681576#13" to="202055286#1"/>
    <trip id="328" depart="241.74" from="895011684#15" to="13682237#8"/>
    <trip id="329" depart="242.47" from="-13682494#0" to="895007899#32"/>
    <trip id="330" depart="243.21" from="-810646572#0" to="13679736#1"/>
    <trip id="331" depart="243.95" from="13680423#17" to="13678063#1"/>
    <trip id="332" depart="244.68" from="89626842#2" to="13681390#0"/>
    <trip id="333" depart="245.42" from="-13680849#22" to="-13682117#3"/>
    <trip id="334" depart="246.16" from="13679911#4" to="13682618#6"/>
    <trip id="335" depart="246.89" from="897289331" to="-13682429#6"/>
    <trip id="336" depart="247.63" from="13680550#1" to="-13678078#5"/>
    <trip id="337" depart="248.37" from="-13682042#5" to="894678059#1"/>
    <trip id="338" depart="249.11" from="13682429#4" to="-13681726#2"/>
    <trip id="339" depart="249.84" from="-13680908#1" to="1253791876"/>
    <trip id="340" depart="250.58" from="-292071098#2" to="13680342#8"/>
    <trip id="341" depart="251.32" from="-13681888" to="292131207#0"/>
    <trip id="342" depart="252.05" from="13681576#17" to="-13682083#5"/>
    <trip id="343" depart="252.79" from="13681642" to="-13678078#2"/>
    <trip id="344" depart="253.53" from="-13682429#2" to="202055018#23"/>
    <trip id="345" depart="254.26" from="89626859" to="13682386#22"/>
    <trip id="346" depart="255.00" from="-13683048#1" to="192953489"/>
    <trip id="347" depart="255.74" from="-202764065#1" to="-1159061926#3"/>
    <trip id="348" depart="256.48" from="13680663#1" to="-13682386#16"/>
    <trip id="349" depart="257.21" from="-13682386#23" to="13681889"/>
    <trip id="350" depart="257.95" from="13678065#2" to="1291318427#2"/>
    <trip id="351" depart="258.69" from="13682507#0" to="13682507#3"/>
    <trip id="352" depart="259.42" from="203381204#1" to="13681524#16"/>
    <trip id="353" depart="260.16" from="13682441#0" to="13682006#0"/>
    <trip id="354" depart="260.90" from="202055013#4" to="886578341#0"/>
    <trip id="355" depart="261.63" from="-13680423#18" to="-13683135#3"/>
    <trip id="356" depart="262.37" from="-13682890#2" to="809428282#4"/>
    <trip id="357" depart="263.11" from="13682805#0" to="-13678818#2"/>
    <trip id="358" depart="263.85" from="129441569" to="-895706731"/>
    <trip id="359" depart="264.58" from="-191800400#6" to="13682006#4"/>
    <trip id="360" depart="265.32" from="-13681524#36" to="13682305#5"/>
    <trip id="361" depart="266.06" from="13682006#0" to="-13680980#2"/>
    <trip id="362" depart="266.79" from="-13678271#2" to="-13680414#1"/>
    <trip id="363" depart="267.53" from="13683014#5" to="-13680939#2"/>
    <trip id="364" depart="268.27" from="990673787" to="13680754"/>
    <trip id="365" depart="269.00" from="-13680185#1" to="-13682429#6"/>
    <trip id="366" depart="269.74" from="-886580089#3" to="13680663#1"/>
    <trip id="367" depart="270.48" from="89627448#2" to="292119446"/>
    <trip id="368" depart="271.22" from="-292121802#27" to="-990656282#0"/>
    <trip id="369" depart="271.95" from="13682051#1" to="13681524#25"/>
    <trip id="370" depart="272.69" from="-202055011#3" to="-13681524#53"/>
    <trip id="371" depart="273.43" from="-89626851#6" to="378520703#1"/>
    <trip id="372" depart="274.16" from="74543355#4" to="-1223122919"/>
    <trip id="373" depart="274.90" from="13678494" to="292134209#1"/>
    <trip id="374" depart="275.64" from="129441444#25" to="13682494#6"/>
    <trip id="375" depart="276.37" from="223421969#4" to="-119662153"/>
    <trip id="376" depart="277.11" from="1298127652" to="895007901"/>
    <trip id="377" depart="277.85" from="895011686#13" to="-13682569#0"/>
    <trip id="378" depart="278.59" from="13680165#1" to="895020092"/>
    <trip id="379" depart="279.32" from="13679853#0" to="13681282#11"/>
    <trip id="380" depart="280.06" from="-13680875" to="-13681151#11"/>
    <trip id="381" depart="280.80" from="-13682305#7" to="1304949235#4"/>
    <trip id="382" depart="281.53" from="13682042#6" to="-13682397#0"/>
    <trip id="383" depart="282.27" from="13681896#2" to="292071063#0"/>
    <trip id="384" depart="283.01" from="-13683014#1" to="-1223122999"/>
    <trip id="385" depart="283.74" from="-71469344" to="13681896#4"/>
    <trip id="386" depart="284.48" from="-13681576#23" to="13682237#18"/>
    <trip id="387" depart="285.22" from="13681639#1" to="292121804"/>
    <trip id="388" depart="285.96" from="24850184#5" to="-13682579#6"/>
    <trip id="389" depart="286.69" from="13679002#7" to="292121803#2"/>
    <trip id="390" depart="287.43" from="-13681394#1" to="886066110#2"/>
    <trip id="391" depart="288.17" from="1223122959" to="13678065#4"/>
    <trip id="392" depart="288.90" from="13682975#8" to="13680912"/>
    <trip id="393" depart="289.64" from="-13681613#3" to="-13680675#7"/>
    <trip id="394" depart="290.38" from="-352915897#0" to="886096995#5"/>
    <trip id="395" depart="291.11" from="13682259#6" to="-292121821#0"/>
    <trip id="396" depart="291.85" from="13682051#7" to="1223122987#1"/>
    <trip id="397" depart="292.59" from="13682805#1" to="13680663#1"/>
    <trip id="398" depart="293.33" from="89626851#7" to="13680962"/>
    <trip id="399" depart="294.06" from="315560188#3" to="-13681524#8"/>
    <trip id="400" depart="294.80" from="-292119473#1" to="-13681098#1"/>
    <trip id="401" depart="295.54" from="-13680435#14" to="13680413#2"/>
    <trip id="402" depart="296.27" from="-13682802#0" to="13678118#1"/>
    <trip id="403" depart="297.01" from="-809428282#2" to="-13680617#10"/>
    <trip id="404" depart="297.75" from="-13681071#5" to="13680426#0"/>
    <trip id="405" depart="298.49" from="-223421969#10" to="-13682006#6"/>
    <trip id="406" depart="299.22" from="1223122991#1" to="129442579"/>
    <trip id="407" depart="299.96" from="13681071#3" to="13682261#6"/>