<?xml version="1.0" encoding="UTF-8"?>

<!-- generated on 2025-03-31 21:58:18.506653 by randomTrips.py v1_22_0+0002-63e50f52594
<configuration>
    <net-file value="map.net.xml"/>
    <route-file value="routes.rou.xml"/>
    <end value="300.0"/>
    <period value="1.0"/>
</configuration>
-->

<routes xmlns:xsi="http://www.w3.org/2001/XMLSchema-instance" xsi:noNamespaceSchemaLocation="http://sumo.dlr.de/xsd/routes_file.xsd">
    <trip id="0" depart="0.00" from="13681373#0" to="-1291318427#3"/>
    <trip id="1" depart="1.00" from="-13682507#2" to="-13682183#0"/>
    <trip id="2" depart="2.00" from="13682432#4" to="13681803#6"/>
    <trip id="3" depart="3.00" from="37138317#5" to="-13680550#0"/>
    <trip id="4" depart="4.00" from="-613382845#3" to="-1297818602#3"/>
    <trip id="5" depart="5.00" from="-13681964#9" to="13678087"/>
    <trip id="6" depart="6.00" from="-1291555014#2" to="-13681851#0"/>
    <trip id="7" depart="7.00" from="13681440" to="13680423#21"/>
    <trip id="8" depart="8.00" from="-13682010#1" to="13680893#1"/>
    <trip id="9" depart="9.00" from="192952205#4" to="-119655169#1"/>
    <trip id="10" depart="10.00" from="191800397" to="13682104#2"/>
    <trip id="11" depart="11.00" from="-202055018#12" to="-13681373#0"/>
    <trip id="12" depart="12.00" from="895007899#45" to="-209364536#1"/>
    <trip id="13" depart="13.00" from="-13680558#0" to="-13680636#1"/>
    <trip id="14" depart="14.00" from="292071075#2" to="13681075#2"/>
    <trip id="15" depart="15.00" from="191800400#5" to="13682429#14"/>
    <trip id="16" depart="16.00" from="13679424#5" to="895034495"/>
    <trip id="17" depart="17.00" from="-292121802#11" to="13680448"/>
    <trip id="18" depart="18.00" from="203381197#6" to="13681232#0"/>
    <trip id="19" depart="19.00" from="292119445#1" to="13680749"/>
    <trip id="20" depart="20.00" from="13682117#2" to="-13678271#3"/>
    <trip id="21" depart="21.00" from="-13682104#4" to="-13683081"/>
    <trip id="22" depart="22.00" from="-13680423#2" to="-13682259#0"/>
    <trip id="23" depart="23.00" from="-13680636#1" to="-13682885#5"/>
    <trip id="24" depart="24.00" from="13681299#7" to="-292121802#12"/>
    <trip id="25" depart="25.00" from="-292114870" to="-13682006#2"/>
    <trip id="26" depart="26.00" from="-13682467#1" to="886084905#3"/>
    <trip id="27" depart="27.00" from="13681424#2" to="13681103#2"/>
    <trip id="28" depart="28.00" from="-13681412#3" to="13682429#10"/>
    <trip id="29" depart="29.00" from="-13681360" to="-315560019#2"/>
    <trip id="30" depart="30.00" from="897245048#2" to="13681412#0"/>
    <trip id="31" depart="31.00" from="13680423#17" to="13681915#1"/>
    <trip id="32" depart="32.00" from="24850184#6" to="13683131#10"/>
    <trip id="33" depart="33.00" from="-13682122#1" to="-1304949235#4"/>
    <trip id="34" depart="34.00" from="-180175669#3" to="-13682618#4"/>
    <trip id="35" depart="35.00" from="-13681872#7" to="886578338#1"/>
    <trip id="36" depart="36.00" from="292131209#1" to="-192952198#0"/>
    <trip id="37" depart="37.00" from="13681524#12" to="-504090216"/>
    <trip id="38" depart="38.00" from="589357405#5" to="1223122982#1"/>
    <trip id="39" depart="39.00" from="-13682464#0" to="-13682429#16"/>
    <trip id="40" depart="40.00" from="13680435#12" to="-13682507#0"/>
    <trip id="41" depart="41.00" from="13680663#8" to="483082950#0"/>
    <trip id="42" depart="42.00" from="-359240785#2" to="-13682122#4"/>
    <trip id="43" depart="43.00" from="990673787" to="13678271#3"/>
    <trip id="44" depart="44.00" from="-13680550#0" to="-13678375#1"/>
    <trip id="45" depart="45.00" from="-13680698#0" to="13681299#5"/>
    <trip id="46" depart="46.00" from="180175609#4" to="-894675264"/>
    <trip id="47" depart="47.00" from="-13679920#0" to="-315560180#5"/>
    <trip id="48" depart="48.00" from="990662001#1" to="13680165#1"/>
    <trip id="49" depart="49.00" from="895034486#3" to="292119473#0"/>
    <trip id="50" depart="50.00" from="-1223122926#3" to="13682340#1"/>
    <trip id="51" depart="51.00" from="13681803#20" to="13680342#4"/>
    <trip id="52" depart="52.00" from="-13682467#0" to="13681413"/>
    <trip id="53" depart="53.00" from="-13680743" to="1032377601#1"/>
    <trip id="54" depart="54.00" from="1159061926#18" to="895007899#22"/>
    <trip id="55" depart="55.00" from="292131206#0" to="-13682507#4"/>
    <trip id="56" depart="56.00" from="129441444#18" to="-13681524#9"/>
    <trip id="57" depart="57.00" from="589357403#1" to="292121804"/>
    <trip id="58" depart="58.00" from="-13682982#1" to="13681402#8"/>
    <trip id="59" depart="59.00" from="13681024#1" to="-13681310#0"/>
    <trip id="60" depart="60.00" from="13682802#1" to="13680347#6"/>
    <trip id="61" depart="61.00" from="13683131#11" to="13680174"/>
    <trip id="62" depart="62.00" from="-1032377601#2" to="-202055014#9"/>
    <trip id="63" depart="63.00" from="-1223122997#3" to="809428282#2"/>
    <trip id="64" depart="64.00" from="292188917#1" to="203505144#5"/>
    <trip id="65" depart="65.00" from="-13683166" to="-13679538#1"/>
    <trip id="66" depart="66.00" from="292188914" to="886580089#2"/>
    <trip id="67" depart="67.00" from="-13680435#6" to="129441444#24"/>
    <trip id="68" depart="68.00" from="-13680328#2" to="13682807#2"/>
    <trip id="69" depart="69.00" from="13682885#7" to="-13681069"/>
    <trip id="70" depart="70.00" from="1223122984#3" to="13680435#18"/>
    <trip id="71" depart="71.00" from="-13682464#1" to="292129113#2"/>
    <trip id="72" depart="72.00" from="-74543358#2" to="-13682029#0"/>
    <trip id="73" depart="73.00" from="13679736#0" to="13682429#15"/>
    <trip id="74" depart="74.00" from="-13681687#5" to="-191800379#2"/>
    <trip id="75" depart="75.00" from="977370176#2" to="13681524#18"/>
    <trip id="76" depart="76.00" from="-886582032#1" to="13679002#4"/>
    <trip id="77" depart="77.00" from="-13680849#20" to="-13682185#5"/>
    <trip id="78" depart="78.00" from="-202055015#0" to="13680849#6"/>
    <trip id="79" depart="79.00" from="-13682136" to="-13682140#1"/>
    <trip id="80" depart="80.00" from="-13680339#1" to="13681348#0"/>
    <trip id="81" depart="81.00" from="-13682122#0" to="518342938#9"/>
    <trip id="82" depart="82.00" from="292114878#0" to="-13680342#6"/>
    <trip id="83" depart="83.00" from="-13682237#17" to="13681639#2"/>
    <trip id="84" depart="84.00" from="-13681915#2" to="-13681097#5"/>
    <trip id="85" depart="85.00" from="886084903#0" to="13680663#19"/>
    <trip id="86" depart="86.00" from="1223122975" to="13683176#4"/>
    <trip id="87" depart="87.00" from="192952198#1" to="-13681675#2"/>
    <trip id="88" depart="88.00" from="-13680617#0" to="-923561811#2"/>
    <trip id="89" depart="89.00" from="-74543368" to="1223123008#5"/>
    <trip id="90" depart="90.00" from="13682386#16" to="13681803#0"/>
    <trip id="91" depart="91.00" from="89626857#1" to="-13680649#1"/>
    <trip id="92" depart="92.00" from="-378569216" to="-223422189#1"/>
    <trip id="93" depart="93.00" from="292119445#1" to="-13682432#1"/>
    <trip id="94" depart="94.00" from="-13681576#20" to="1223122926#1"/>
    <trip id="95" depart="95.00" from="-613382845#2" to="-13682885#9"/>
    <trip id="96" depart="96.00" from="-13682340#6" to="74543364#3"/>
    <trip id="97" depart="97.00" from="-897245048#0" to="292119473#2"/>
    <trip id="98" depart="98.00" from="13680342#4" to="-13678720#0"/>
    <trip id="99" depart="99.00" from="991065321" to="209711044"/>
    <trip id="100" depart="100.00" from="895029178" to="76608602#0"/>
    <trip id="101" depart="101.00" from="292071086#4" to="-13681448#0"/>
    <trip id="102" depart="102.00" from="1223623564#1" to="-13682051#1"/>
    <trip id="103" depart="103.00" from="-378520702#2" to="-13679538#6"/>
    <trip id="104" depart="104.00" from="-292121802#14" to="89626865#1"/>
    <trip id="105" depart="105.00" from="-13682464#2" to="13683176#13"/>
    <trip id="106" depart="106.00" from="1159061926#5" to="-894782754#1"/>
    <trip id="107" depart="107.00" from="895007899#46" to="977370176#2"/>
    <trip id="108" depart="108.00" from="13680423#1" to="13682308#0"/>
    <trip id="109" depart="109.00" from="-13681282#0" to="-13683176#8"/>
    <trip id="110" depart="110.00" from="895029170" to="13680780#7"/>
    <trip id="111" depart="111.00" from="13680085" to="13682519#3"/>
    <trip id="112" depart="112.00" from="-13679408#1" to="13680809#3"/>
    <trip id="113" depart="113.00" from="129441444#31" to="292114856#1"/>
    <trip id="114" depart="114.00" from="-13681299#1" to="895011684#1"/>
    <trip id="115" depart="115.00" from="-13680423#21" to="-13681607#2"/>
    <trip id="116" depart="116.00" from="13680849#11" to="13681803#2"/>
    <trip id="117" depart="117.00" from="-13682197#0" to="-13680908#1"/>
    <trip id="118" depart="118.00" from="353261803#0" to="-13682429#13"/>
    <trip id="119" depart="119.00" from="13680849#0" to="13681232#6"/>
    <trip id="120" depart="120.00" from="-589357405#3" to="13680809#0"/>
    <trip id="121" depart="121.00" from="13678190#3" to="886084901#3"/>
    <trip id="122" depart="122.00" from="-13681803#17" to="13682261#5"/>
    <trip id="123" depart="123.00" from="-13682237#20" to="-518342938#1"/>
    <trip id="124" depart="124.00" from="13681607#10" to="-180175600#8"/>
    <trip id="125" depart="125.00" from="-180175684#4" to="13682618#5"/>
    <trip id="126" depart="126.00" from="-13680342#2" to="1223122981#0"/>
    <trip id="127" depart="127.00" from="991065298#0" to="990656282#2"/>
    <trip id="128" depart="128.00" from="-13680342#7" to="-13682042#6"/>
    <trip id="129" depart="129.00" from="-13682464#2" to="886071146#0"/>
    <trip id="130" depart="130.00" from="299709777#1" to="299709769#1"/>
    <trip id="131" depart="131.00" from="-292114868#0" to="-13681397#2"/>
    <trip id="132" depart="132.00" from="203505144#7" to="13682173#7"/>
    <trip id="133" depart="133.00" from="13681071#5" to="89626882"/>
    <trip id="134" depart="134.00" from="13681476#4" to="-119662156#3"/>
    <trip id="135" depart="135.00" from="202055014#24" to="-180175600#4"/>
    <trip id="136" depart="136.00" from="13681524#60" to="886096995#0"/>
    <trip id="137" depart="137.00" from="-13681032#3" to="-13680849#21"/>
    <trip id="138" depart="138.00" from="-13680663#4" to="13680482"/>
    <trip id="139" depart="139.00" from="-13682482#4" to="13681097#0"/>
    <trip id="140" depart="140.00" from="13682237#5" to="-13681896#6"/>
    <trip id="141" depart="141.00" from="13681299#13" to="-13682519#1"/>
    <trip id="142" depart="142.00" from="1223623583#2" to="518342938#9"/>
    <trip id="143" depart="143.00" from="292071070#1" to="-13680570#5"/>
    <trip id="144" depart="144.00" from="-74543368" to="-13682838"/>
    <trip id="145" depart="145.00" from="-1159061926#17" to="13682989#2"/>
    <trip id="146" depart="146.00" from="13681310#3" to="-13682494#2"/>
    <trip id="147" depart="147.00" from="13682466#0" to="13680436#4"/>
    <trip id="148" depart="148.00" from="-886071144#0" to="-1223122921"/>
    <trip id="149" depart="149.00" from="-13680375" to="315559849#7"/>
    <trip id="150" depart="150.00" from="518342938#1" to="13680423#25"/>
    <trip id="151" depart="151.00" from="207749057#3" to="13680806#4"/>
    <trip id="152" depart="152.00" from="-13681151#4" to="-13681032#1"/>
    <trip id="153" depart="153.00" from="-13683176#0" to="486471031#3"/>
    <trip id="154" depart="154.00" from="191741377#3" to="292119473#0"/>
    <trip id="155" depart="155.00" from="486471031#0" to="-13682006#5"/>
    <trip id="156" depart="156.00" from="-13682340#4" to="-13680663#4"/>
    <trip id="157" depart="157.00" from="13683131#8" to="315560014#1"/>
    <trip id="158" depart="158.00" from="-486471031#3" to="13681238#7"/>
    <trip id="159" depart="159.00" from="-13681276#3" to="810283017#0"/>
    <trip id="160" depart="160.00" from="292121791" to="895706712#1"/>
    <trip id="161" depart="161.00" from="201180108" to="315559573#2"/>
    <trip id="162" depart="162.00" from="-1291318427#1" to="13682464#0"/>
    <trip id="163" depart="163.00" from="-202055013#1" to="886059531"/>
    <trip id="164" depart="164.00" from="191800373#0" to="292121795#2"/>
    <trip id="165" depart="165.00" from="201180108" to="-13682603#2"/>
    <trip id="166" depart="166.00" from="13683176#7" to="-13680783#1"/>
    <trip id="167" depart="167.00" from="292121805" to="292114878#0"/>
    <trip id="168" depart="168.00" from="-13682042#1" to="202055014#32"/>
    <trip id="169" depart="169.00" from="119662153" to="-191741377#6"/>
    <trip id="170" depart="170.00" from="184025991#4" to="-13682237#19"/>
    <trip id="171" depart="171.00" from="-1223623583#0" to="-13681726#3"/>
    <trip id="172" depart="172.00" from="-192952198#2" to="292121795#4"/>
    <trip id="173" depart="173.00" from="895011686#6" to="-13682890#1"/>
    <trip id="174" depart="174.00" from="13681391#1" to="-557585563#1"/>
    <trip id="175" depart="175.00" from="89626851#1" to="13680342#0"/>
    <trip id="176" depart="176.00" from="886096995#0" to="-13680849#20"/>
    <trip id="177" depart="177.00" from="895034485" to="-13681524#8"/>
    <trip id="178" depart="178.00" from="895011684#5" to="-13682579#0"/>
    <trip id="179" depart="179.00" from="-13680675#1" to="1032377601#0"/>
    <trip id="180" depart="180.00" from="13682386#12" to="-191800399#2"/>
    <trip id="181" depart="181.00" from="13680983#0" to="13678412"/>
    <trip id="182" depart="182.00" from="-292129113#1" to="13680719"/>
    <trip id="183" depart="183.00" from="-13682386#5" to="13682237#19"/>
    <trip id="184" depart="184.00" from="-1158072209#1" to="76608588"/>
    <trip id="185" depart="185.00" from="13679626" to="13682319#1"/>
    <trip id="186" depart="186.00" from="13682466#4" to="13681675#2"/>
    <trip id="187" depart="187.00" from="-292071101#2" to="-13680342#1"/>
    <trip id="188" depart="188.00" from="13681524#65" to="-202055019#3"/>
    <trip id="189" depart="189.00" from="-180175601#1" to="292071086#5"/>
    <trip id="190" depart="190.00" from="13682259#6" to="-180175601#1"/>
    <trip id="191" depart="191.00" from="-13683176#3" to="-74543358#4"/>
    <trip id="192" depart="192.00" from="-378569209#5" to="-13683176#13"/>
    <trip id="193" depart="193.00" from="-13680939#2" to="-886580089#1"/>
    <trip id="194" depart="194.00" from="886097033#1" to="13681815#0"/>
    <trip id="195" depart="195.00" from="497742021#4" to="13681151#8"/>
    <trip id="196" depart="196.00" from="-13683014#4" to="13680426#1"/>
    <trip id="197" depart="197.00" from="-1032377601#1" to="-13682991"/>
    <trip id="198" depart="198.00" from="-886084905#0" to="13680783#5"/>
    <trip id="199" depart="199.00" from="13681511#2" to="1223123000"/>
    <trip id="200" depart="200.00" from="-89626851#7" to="-13682051#0"/>
    <trip id="201" depart="201.00" from="1223122977#0" to="497742021#14"/>
    <trip id="202" depart="202.00" from="191741377#2" to="-13681524#14"/>
    <trip id="203" depart="203.00" from="-13680435#17" to="13678818#0"/>
    <trip id="204" depart="204.00" from="13681293#2" to="-207749057#6"/>
    <trip id="205" depart="205.00" from="202055014#32" to="13682618#0"/>
    <trip id="206" depart="206.00" from="13681607#8" to="-13682185#5"/>
    <trip id="207" depart="207.00" from="-13681639#6" to="-1253790646#1"/>
    <trip id="208" depart="208.00" from="-13682260#1" to="1223623593#0"/>
    <trip id="209" depart="209.00" from="292071089#0" to="-13680375"/>
    <trip id="210" depart="210.00" from="-557585562#1" to="13681326#0"/>
    <trip id="211" depart="211.00" from="-13681595#1" to="13682083#3"/>
    <trip id="212" depart="212.00" from="1223623600#0" to="-13682386#9"/>
    <trip id="213" depart="213.00" from="13681524#16" to="-119655161"/>
    <trip id="214" depart="214.00" from="13682509" to="13682975#9"/>
    <trip id="215" depart="215.00" from="-13680663#26" to="-89626851#15"/>
    <trip id="216" depart="216.00" from="-13681450" to="895007899#47"/>
    <trip id="217" depart="217.00" from="13678065#4" to="-13678571#3"/>
    <trip id="218" depart="218.00" from="-13682340#2" to="292071086#7"/>
    <trip id="219" depart="219.00" from="119645062#0" to="191800373#5"/>
    <trip id="220" depart="220.00" from="13681576#24" to="89626893"/>
    <trip id="221" depart="221.00" from="13680849#14" to="894675264"/>
    <trip id="222" depart="222.00" from="37138317#0" to="13681151#20"/>
    <trip id="223" depart="223.00" from="13682259#3" to="13678078#6"/>
    <trip id="224" depart="224.00" from="203381201" to="13680426#0"/>
    <trip id="225" depart="225.00" from="483082949#0" to="13682482#1"/>
    <trip id="226" depart="226.00" from="1223122983#1" to="-13682480#7"/>
    <trip id="227" depart="227.00" from="-13682313#1" to="13681402#13"/>
    <trip id="228" depart="228.00" from="13682885#7" to="13679424#0"/>
    <trip id="229" depart="229.00" from="13681232#0" to="-13682798#1"/>
    <trip id="230" depart="230.00" from="-13680414#2" to="-13682989#0"/>
    <trip id="231" depart="231.00" from="-13682480#9" to="-202055014#11"/>
    <trip id="232" depart="232.00" from="13679832#0" to="-13681151#18"/>
    <trip id="233" depart="233.00" from="-13682158#1" to="13682047"/>
    <trip id="234" depart="234.00" from="13682140#1" to="-13680174"/>
    <trip id="235" depart="235.00" from="-497742021#1" to="13680416"/>
    <trip id="236" depart="236.00" from="-557585569#4" to="-13681964#12"/>
    <trip id="237" depart="237.00" from="-589357405#9" to="518342938#6"/>
    <trip id="238" depart="238.00" from="13680663#4" to="13682061#0"/>
    <trip id="239" depart="239.00" from="292114864" to="13682926#0"/>
    <trip id="240" depart="240.00" from="-292121802#22" to="-119655167#0"/>
    <trip id="241" depart="241.00" from="-223421969#4" to="13682638#6"/>
    <trip id="242" depart="242.00" from="292114853#0" to="895007899#2"/>
    <trip id="243" depart="243.00" from="-589357405#1" to="13682511"/>
    <trip id="244" depart="244.00" from="13680247#4" to="13681071#9"/>
    <trip id="245" depart="245.00" from="-13682010#2" to="-13682122#4"/>
    <trip id="246" depart="246.00" from="-886580081#1" to="-129441570#6"/>
    <trip id="247" depart="247.00" from="-202055014#28" to="13681857#0"/>
    <trip id="248" depart="248.00" from="-483082949#1" to="-13681440"/>
    <trip id="249" depart="249.00" from="1223122948" to="-13681032#2"/>
    <trip id="250" depart="250.00" from="13681151#27" to="-1291555117#1"/>
    <trip id="251" depart="251.00" from="-315560019#1" to="13680617#5"/>
    <trip id="252" depart="252.00" from="-1291555117#2" to="13681433#2"/>
    <trip id="253" depart="253.00" from="-13681071#2" to="1223122989#0"/>
    <trip id="254" depart="254.00" from="-13678506#7" to="-315560019#0"/>
    <trip id="255" depart="255.00" from="-13681886#0" to="-202055018#15"/>
    <trip id="256" depart="256.00" from="13682772#0" to="-315560019#0"/>
    <trip id="257" depart="257.00" from="13682519#6" to="203505144#6"/>
    <trip id="258" depart="258.00" from="-13682386#11" to="-13680435#2"/>
    <trip id="259" depart="259.00" from="-1223122997#2" to="13680347#6"/>
    <trip id="260" depart="260.00" from="992062981" to="-292083322#0"/>
    <trip id="261" depart="261.00" from="13681441#1" to="13683154#0"/>
    <trip id="262" depart="262.00" from="13681450" to="13682644#1"/>
    <trip id="263" depart="263.00" from="894675264" to="-13681857#0"/>
    <trip id="264" depart="264.00" from="-1223123002#1" to="-13681300"/>
    <trip id="265" depart="265.00" from="-13680908#4" to="13681639#5"/>
    <trip id="266" depart="266.00" from="13680436#3" to="-13682105#0"/>
    <trip id="267" depart="267.00" from="13682044" to="13682929#7"/>
    <trip id="268" depart="268.00" from="-13681402#0" to="13681102#1"/>
    <trip id="269" depart="269.00" from="13682492#0" to="-13680849#16"/>
    <trip id="270" depart="270.00" from="202055014#8" to="895011686#14"/>
    <trip id="271" depart="271.00" from="-13680673" to="-1291555013#1"/>
    <trip id="272" depart="272.00" from="-180175600#1" to="13681815#0"/>
    <trip id="273" depart="273.00" from="895007899#6" to="-518342938#3"/>
    <trip id="274" depart="274.00" from="13682237#26" to="-13680423#14"/>
    <trip id="275" depart="275.00" from="13681915#4" to="13681299#3"/>
    <trip id="276" depart="276.00" from="-13680636#7" to="13683014#10"/>
    <trip id="277" depart="277.00" from="292071091#2" to="13681032#0"/>
    <trip id="278" depart="278.00" from="-13680849#20" to="89626854"/>
    <trip id="279" depart="279.00" from="13683150#3" to="-292071089#0"/>
    <trip id="280" depart="280.00" from="-886071145#3" to="-292123187#0"/>
    <trip id="281" depart="281.00" from="129441570#4" to="-292071061"/>
    <trip id="282" depart="282.00" from="292071087#2" to="202055018#4"/>
    <trip id="283" depart="283.00" from="-13680663#2" to="895011684#1"/>
    <trip id="284" depart="284.00" from="13681299#6" to="203381200#1"/>
    <trip id="285" depart="285.00" from="13682158#2" to="1128386280"/>
    <trip id="286" depart="286.00" from="13682429#15" to="895011686#19"/>
    <trip id="287" depart="287.00" from="-13682480#0" to="192953489"/>
    <trip id="288" depart="288.00" from="13679538#5" to="129441444#1"/>
    <trip id="289" depart="289.00" from="-886580078#4" to="13682429#5"/>
    <trip id="290" depart="290.00" from="-13682474#0" to="292083323"/>
    <trip id="291" depart="291.00" from="203381203" to="-13680542#1"/>
    <trip id="292" depart="292.00" from="315559573#2" to="-13682386#8"/>
    <trip id="293" depart="293.00" from="1223122926#4" to="13681127#0"/>
    <trip id="294" depart="294.00" from="-292121802#14" to="-129441570#4"/>
    <trip id="295" depart="295.00" from="292071093#2" to="-13681576#26"/>
    <trip id="296" depart="296.00" from="-13681886#3" to="191786471#0"/>
    <trip id="297" depart="297.00" from="-202055018#13" to="299709776#1"/>
    <trip id="298" depart="298.00" from="13682061#0" to="-13682814#0"/>
    <trip id="299" depart="299.00" from="-1223122923#1" to="886582017#0"/>
</routes>
